# primitive CIF file created by Jmol 14.29.28  2018-10-31 18:38
data_primitive
_cell_length_a 10.1547
_cell_length_b 10.3853
_cell_length_c 14.1353
_cell_angle_alpha 78.723
_cell_angle_beta 82.09
_cell_angle_gamma 69.285

_symmetry_space_group_name_H-M 'P 1'
loop_
_space_group_symop_operation_xyz
'x,y,z'

loop_
_atom_site_label
_atom_site_fract_x
_atom_site_fract_y
_atom_site_fract_z
Si	0.12884   	0.83514   	0.18986   
C	0.41913   	0.57109   	0.41753   
C	0.49574   	0.37020   	0.54737   
S	0.49440   	0.21780   	0.61560   
C	0.41721   	0.44031   	0.46594   
C	0.34570   	0.33600   	0.46760   
H	0.27510   	0.35410   	0.42440   
C	0.38276   	0.21480   	0.53159   
C	0.33666   	0.09431   	0.54891   
S	0.23300   	0.08390   	0.46370   
C	0.35500   	-0.01760  	0.61990   
H	0.41270   	-0.03470  	0.67160   
C	0.28099   	-0.10800  	0.61000   
C	0.28000   	-0.23000  	0.67200   
H	0.32670   	-0.25840  	0.72990   
C	0.20900   	-0.30800  	0.64600   
S	0.19070   	-0.46310  	0.70830   
C	0.10799   	-0.48300  	0.61700   
H	0.09060   	-0.56630  	0.61380   
C	0.07100   	-0.36800  	0.55100   
H	0.01080   	-0.35550  	0.50190   
C	0.13000   	-0.26400  	0.56200   
C	0.13300   	-0.14400  	0.50100   
H	0.07810   	-0.10870  	0.44670   
C	0.21800   	-0.07500  	0.52100   
C	0.33397   	0.64768   	0.33872   
C	0.25807   	0.71988   	0.27641   
C	0.08051   	1.02024   	0.20926   
H	0.01400   	1.08120   	0.16090   
H	0.03030   	1.02940   	0.27410   
C	0.20459   	1.07240   	0.20200   
H	0.25480   	1.06410   	0.13710   
H	0.27140   	1.01180   	0.25040   
C	0.16200   	1.22360   	0.21850   
H	0.09410   	1.23760   	0.27630   
H	0.24610   	1.24250   	0.23090   
C	0.09560   	1.32290   	0.13380   
H	0.15820   	1.30280   	0.07530   
H	0.08000   	1.41830   	0.14330   
H	0.00501   	1.31319   	0.12680   
C	0.20963   	0.81413   	0.06409   
H	0.14340   	0.88090   	0.01750   
H	0.29710   	0.83810   	0.05480   
C	0.24530   	0.66678   	0.04125   
H	0.31170   	0.60000   	0.08770   
H	0.15780   	0.64270   	0.05060   
C	0.31080   	0.64980   	-0.06137  
H	0.24379   	0.71480   	-0.10810  
H	0.39750   	0.67519   	-0.07140  
C	0.34750   	0.50240   	-0.08112  
H	0.40980   	0.43710   	-0.03280  
H	0.39560   	0.49490   	-0.14590  
H	0.26080   	0.47990   	-0.07740  
C	-0.03032  	0.77935   	0.21349   
H	-0.00050  	0.67930   	0.20790   
H	-0.06940  	0.78930   	0.28090   
C	-0.14772  	0.86131   	0.14530   
H	-0.18630  	0.95950   	0.15640   
H	-0.10700  	0.86060   	0.07750   
C	-0.26698  	0.80171   	0.15964   
H	-0.30040  	0.79290   	0.22900   
H	-0.22991  	0.70690   	0.14210   
C	-0.39180  	0.88950   	0.10024   
H	-0.43030  	0.98310   	0.11790   
H	-0.46490  	0.84570   	0.11330   
H	-0.36040  	0.89600   	0.03130   
Si	0.87116   	0.16486   	0.81014   
C	0.58087   	0.42891   	0.58247   
C	0.50426   	0.62980   	0.45263   
S	0.50560   	0.78220   	0.38440   
C	0.58279   	0.55969   	0.53406   
C	0.65430   	0.66400   	0.53240   
H	0.72490   	0.64590   	0.57560   
C	0.61724   	0.78519   	0.46841   
C	0.66334   	0.90569   	0.45109   
S	0.76700   	0.91610   	0.53630   
C	0.64500   	1.01760   	0.38010   
H	0.58730   	1.03470   	0.32840   
C	0.71900   	1.10800   	0.39000   
C	0.72000   	1.23000   	0.32800   
H	0.67330   	1.25840   	0.27010   
C	0.79100   	1.30800   	0.35400   
S	0.80930   	1.46310   	0.29170   
C	0.89200   	1.48300   	0.38300   
H	0.90940   	1.56630   	0.38620   
C	0.92900   	1.36800   	0.44900   
H	0.98920   	1.35550   	0.49810   
C	0.87000   	1.26400   	0.43800   
C	0.86700   	1.14400   	0.49900   
H	0.92190   	1.10870   	0.55330   
C	0.78201   	1.07500   	0.47900   
C	0.66603   	0.35232   	0.66128   
C	0.74194   	0.28012   	0.72359   
C	0.91949   	-0.02023  	0.79074   
H	0.98600   	-0.08120  	0.83910   
H	0.96970   	-0.02940  	0.72590   
C	0.79540   	-0.07240  	0.79800   
H	0.74520   	-0.06410  	0.86290   
H	0.72860   	-0.01180  	0.74960   
C	0.83800   	-0.22360  	0.78150   
H	0.90590   	-0.23760  	0.72370   
H	0.75390   	-0.24250  	0.76910   
C	0.90440   	-0.32290  	0.86620   
H	0.84180   	-0.30280  	0.92470   
H	0.92000   	-0.41830  	0.85670   
H	0.99500   	-0.31320  	0.87320   
C	0.79037   	0.18587   	0.93591   
H	0.85660   	0.11910   	0.98250   
H	0.70289   	0.16190   	0.94520   
C	0.75471   	0.33322   	0.95875   
H	0.68830   	0.40000   	0.91230   
H	0.84220   	0.35730   	0.94940   
C	0.68920   	0.35020   	1.06137   
H	0.75620   	0.28520   	1.10810   
H	0.60250   	0.32480   	1.07140   
C	0.65250   	0.49760   	1.08112   
H	0.59020   	0.56290   	1.03280   
H	0.60441   	0.50510   	1.14590   
H	0.73920   	0.52010   	1.07740   
C	1.03032   	0.22065   	0.78651   
H	1.00050   	0.32070   	0.79210   
H	1.06940   	0.21070   	0.71910   
C	1.14772   	0.13869   	0.85470   
H	1.18630   	0.04050   	0.84360   
H	1.10700   	0.13940   	0.92250   
C	1.26698   	0.19829   	0.84036   
H	1.30040   	0.20710   	0.77100   
H	1.22990   	0.29309   	0.85790   
C	1.39180   	0.11050   	0.89976   
H	1.43030   	0.01690   	0.88210   
H	1.46490   	0.15430   	0.88670   
H	1.36040   	0.10400   	0.96870   
