# primitive CIF file created by Jmol 14.29.28  2018-10-31 18:38
data_primitive
_cell_length_a 5.629
_cell_length_b 5.021
_cell_length_c 56.997
_cell_angle_alpha 90.0
_cell_angle_beta 90.01
_cell_angle_gamma 90.0

_symmetry_space_group_name_H-M 'P 1'
loop_
_space_group_symop_operation_xyz
'x,y,z'

loop_
_atom_site_label
_atom_site_fract_x
_atom_site_fract_y
_atom_site_fract_z
S	0.04820   	1.05491   	0.21487   
C	-0.07800  	1.02400   	0.18750   
H	-0.20430  	1.13280   	0.18210   
C	0.02999   	0.81900   	0.17400   
H	-0.01519  	0.77130   	0.15850   
C	0.21399   	0.69401   	0.18720   
C	0.25001   	0.79401   	0.20950   
S	-0.02079  	0.95740   	0.21646   
C	-0.13999  	0.95501   	0.18870   
H	-0.28470  	1.03939   	0.18440   
C	0.00700   	0.80900   	0.17290   
H	-0.02269  	0.79080   	0.15660   
C	0.20299   	0.69301   	0.18500   
C	0.22400   	0.76001   	0.20840   
S	0.52369   	0.39150   	0.22823   
C	0.39600   	0.70000   	0.22690   
C	0.45800   	0.85700   	0.24720   
H	0.40630   	1.03400   	0.25000   
C	0.60769   	0.70699   	0.26254   
C	0.66011   	0.45600   	0.25509   
C	0.80900   	0.30301   	0.27000   
H	0.86031   	0.12569   	0.26710   
C	0.87101   	0.46100   	0.29020   
S	0.74420   	0.77220   	0.28923   
S	0.64241   	0.51741   	0.22252   
C	0.37599   	0.67200   	0.22770   
C	0.33500   	0.72800   	0.25240   
H	0.19920   	0.81099   	0.25890   
C	0.53801   	0.63499   	0.26500   
C	0.70800   	0.50600   	0.25240   
C	0.92900   	0.45101   	0.26410   
H	1.07040   	0.38861   	0.25700   
C	0.89699   	0.50900   	0.28870   
S	0.62409   	0.64601   	0.29410   
C	1.03600   	0.39500   	0.30700   
C	1.01901   	0.44300   	0.33070   
C	1.20599   	0.33499   	0.34440   
H	1.21940   	0.34959   	0.36100   
C	1.37100   	0.19699   	0.32930   
H	1.50990   	0.10970   	0.33480   
S	1.29071   	0.21030   	0.30077   
C	1.04400   	0.38200   	0.30920   
C	1.09900   	0.48401   	0.33090   
C	1.28900   	0.34800   	0.34250   
H	1.36760   	0.40811   	0.35630   
C	1.34199   	0.10500   	0.33010   
H	1.43390   	-0.03750  	0.33630   
S	1.22130   	0.10510   	0.30292   
C	0.38700   	0.49600   	0.17539   
H	0.39560   	0.33290   	0.18510   
H	0.54799   	0.57680   	0.17520   
C	0.32100   	0.41599   	0.15000   
H	0.30931   	0.57660   	0.13990   
H	0.16569   	0.32350   	0.14980   
C	0.52100   	0.22701   	0.14080   
H	0.67510   	0.32161   	0.14220   
H	0.52860   	0.06971   	0.15130   
C	0.49599   	0.13101   	0.11590   
H	0.48880   	0.28570   	0.10520   
H	0.34520   	0.03029   	0.11430   
C	0.70700   	-0.05001  	0.10904   
H	0.71521   	-0.20119  	0.12020   
H	0.85630   	0.05280   	0.11060   
C	0.69301   	-0.16300  	0.08374   
H	0.54649   	-0.27150  	0.08220   
H	0.68140   	-0.01330  	0.07250   
C	0.90500   	-0.33300  	0.07763   
H	1.04971   	-0.22380  	0.08020   
H	0.91140   	-0.48239  	0.08890   
C	0.92001   	-0.44800  	0.05320   
H	0.92560   	-0.29861  	0.04190   
H	0.77211   	-0.54870  	0.05020   
C	1.13400   	-0.63400  	0.04832   
H	1.28311   	-0.53420  	0.05130   
H	1.12920   	-0.78480  	0.05950   
C	1.14000   	-0.73999  	0.02433   
H	0.98860   	-0.83290  	0.02110   
H	1.15470   	-0.59050  	0.01310   
C	1.33701   	-0.92599  	0.02050   
H	1.39480   	-0.90840  	0.00440   
H	1.28180   	-1.10870  	0.02310   
H	1.46620   	-0.88530  	0.03150   
C	0.92800   	0.68401   	0.34320   
H	0.75599   	0.69500   	0.33990   
H	1.00249   	0.84029   	0.33560   
C	0.95800   	0.72400   	0.37010   
H	1.12130   	0.78431   	0.37370   
H	0.92790   	0.55469   	0.37850   
C	0.77199   	0.93999   	0.37750   
H	0.79759   	1.10030   	0.36770   
H	0.61150   	0.87150   	0.37400   
C	0.78000   	1.02300   	0.40290   
H	0.92641   	1.12539   	0.40620   
H	0.77740   	0.86409   	0.41320   
C	0.55499   	1.19900   	0.40730   
H	0.54810   	1.34469   	0.39560   
H	0.40960   	1.09010   	0.40570   
C	0.57101   	1.31800   	0.43250   
H	0.57060   	1.17150   	0.44410   
H	0.72139   	1.41751   	0.43420   
C	0.36400   	1.50301   	0.43740   
H	0.21359   	1.40490   	0.43460   
H	0.36950   	1.65320   	0.42620   
C	0.36401   	1.61201   	0.46220   
H	0.51580   	1.70470   	0.46520   
H	0.35060   	1.46270   	0.47340   
C	0.15400   	1.81000   	0.46630   
H	0.17339   	1.96560   	0.45580   
H	0.00270   	1.72129   	0.46230   
C	0.14500   	1.90199   	0.49080   
H	0.03320   	2.05379   	0.49200   
H	0.30400   	1.96461   	0.49570   
C	0.06700   	1.68600   	0.50640   
H	0.06150   	1.75190   	0.52260   
H	-0.09201  	1.62631   	0.50170   
H	0.17849   	1.53720   	0.50540   
S	0.95181   	0.55491   	0.78513   
C	1.07800   	0.52400   	0.81250   
H	1.20431   	0.63280   	0.81790   
C	0.97000   	0.31900   	0.82600   
H	1.01520   	0.27130   	0.84150   
C	0.78600   	0.19401   	0.81280   
C	0.75000   	0.29401   	0.79050   
S	1.02080   	0.45740   	0.78354   
C	1.14000   	0.45501   	0.81130   
H	1.28471   	0.53940   	0.81560   
C	0.99301   	0.30900   	0.82710   
H	1.02270   	0.29080   	0.84340   
C	0.79700   	0.19301   	0.81500   
C	0.77600   	0.26001   	0.79160   
S	0.47630   	-0.10850  	0.77177   
C	0.60400   	0.20000   	0.77310   
C	0.54200   	0.35700   	0.75280   
H	0.59370   	0.53400   	0.75000   
C	0.39230   	0.20699   	0.73746   
C	0.33990   	-0.04399  	0.74491   
C	0.19100   	-0.19699  	0.73000   
H	0.13970   	-0.37431  	0.73290   
C	0.12900   	-0.03900  	0.70980   
S	0.25580   	0.27220   	0.71077   
S	0.35760   	0.01741   	0.77748   
C	0.62400   	0.17200   	0.77230   
C	0.66499   	0.22800   	0.74760   
H	0.80079   	0.31099   	0.74110   
C	0.46200   	0.13499   	0.73500   
C	0.29199   	0.00600   	0.74760   
C	0.07099   	-0.04899  	0.73590   
H	-0.07040  	-0.11139  	0.74300   
C	0.10300   	0.00900   	0.71130   
S	0.37590   	0.14601   	0.70590   
C	-0.03599  	-0.10500  	0.69300   
C	-0.01900  	-0.05700  	0.66930   
C	-0.20600  	-0.16501  	0.65560   
H	-0.21941  	-0.15041  	0.63900   
C	-0.37099  	-0.30301  	0.67070   
H	-0.50989  	-0.39030  	0.66520   
S	-0.29070  	-0.28970  	0.69923   
C	-0.04399  	-0.11800  	0.69080   
C	-0.09899  	-0.01599  	0.66910   
C	-0.28900  	-0.15200  	0.65750   
H	-0.36760  	-0.09189  	0.64370   
C	-0.34200  	-0.39500  	0.66990   
H	-0.43390  	-0.53750  	0.66370   
S	-0.22129  	-0.39490  	0.69708   
C	0.61300   	-0.00400  	0.82461   
H	0.60441   	-0.16710  	0.81490   
H	0.45200   	0.07680   	0.82480   
C	0.67899   	-0.08401  	0.85000   
H	0.69070   	0.07660   	0.86010   
H	0.83430   	-0.17650  	0.85020   
C	0.47899   	-0.27299  	0.85920   
H	0.32490   	-0.17839  	0.85780   
H	0.47141   	-0.43029  	0.84870   
C	0.50400   	-0.36901  	0.88410   
H	0.51119   	-0.21430  	0.89480   
H	0.65481   	-0.46971  	0.88570   
C	0.29299   	-0.55001  	0.89096   
H	0.28480   	-0.70119  	0.87980   
H	0.14369   	-0.44720  	0.88940   
C	0.30700   	-0.66300  	0.91626   
H	0.45350   	-0.77150  	0.91780   
H	0.31861   	-0.51330  	0.92750   
C	0.09500   	-0.83300  	0.92237   
H	-0.04970  	-0.72380  	0.91980   
H	0.08861   	-0.98239  	0.91110   
C	0.08000   	-0.94800  	0.94680   
H	0.07441   	-0.79861  	0.95810   
H	0.22790   	-1.04870  	0.94980   
C	-0.13401  	-1.13400  	0.95168   
H	-0.28310  	-1.03420  	0.94870   
H	-0.12920  	-1.28480  	0.94050   
C	-0.14001  	-1.23999  	0.97567   
H	0.01139   	-1.33290  	0.97890   
H	-0.15470  	-1.09050  	0.98690   
C	-0.33700  	-1.42599  	0.97950   
H	-0.39479  	-1.40840  	0.99560   
H	-0.28181  	-1.60870  	0.97690   
H	-0.46620  	-1.38530  	0.96850   
C	0.07201   	0.18401   	0.65680   
H	0.24400   	0.19500   	0.66010   
H	-0.00250  	0.34029   	0.66440   
C	0.04201   	0.22400   	0.62990   
H	-0.12129  	0.28431   	0.62630   
H	0.07211   	0.05469   	0.62150   
C	0.22800   	0.43999   	0.62250   
H	0.20240   	0.60030   	0.63230   
H	0.38849   	0.37150   	0.62600   
C	0.21999   	0.52300   	0.59710   
H	0.07360   	0.62539   	0.59380   
H	0.22260   	0.36409   	0.58680   
C	0.44500   	0.69900   	0.59270   
H	0.45189   	0.84469   	0.60440   
H	0.59039   	0.59010   	0.59430   
C	0.42900   	0.81800   	0.56750   
H	0.42941   	0.67150   	0.55590   
H	0.27860   	0.91751   	0.56580   
C	0.63599   	1.00301   	0.56260   
H	0.78640   	0.90490   	0.56540   
H	0.63050   	1.15320   	0.57380   
C	0.63600   	1.11201   	0.53780   
H	0.48419   	1.20470   	0.53480   
H	0.64939   	0.96270   	0.52660   
C	0.84600   	1.31000   	0.53370   
H	0.82660   	1.46560   	0.54420   
H	0.99731   	1.22129   	0.53770   
C	0.85499   	1.40199   	0.50920   
H	0.96681   	1.55379   	0.50800   
H	0.69601   	1.46461   	0.50430   
C	0.93299   	1.18600   	0.49360   
H	0.93851   	1.25190   	0.47740   
H	1.09200   	1.12631   	0.49830   
H	0.82150   	1.03720   	0.49460   
