data_k01074
_audit_creation_method         'generated by CrystalMaker 9.2.5'
_publ_section_comment
;
 k01074 in P-1

;
_cell_length_a                   7.2460(10)
_cell_length_b                  10.1790(10)
_cell_length_c                  11.6690(10)
_cell_angle_alpha              105.7160(100)
_cell_angle_beta               102.0070(100)
_cell_angle_gamma               93.6090(100)

_symmetry_space_group_name_H-M     'P -1'
_symmetry_Int_Tables_number         2
_symmetry_cell_setting             triclinic
loop_
_symmetry_equiv_pos_as_xyz
'+x,+y,+z'
'-x,-y,-z'

loop_
_atom_site_label
_atom_site_type_symbol
_atom_site_occupancy
_atom_site_fract_x
_atom_site_fract_y
_atom_site_fract_z
_atom_site_U_iso_or_equiv
    C1    C  11.0000      0.0021    0.5683    0.4087  .  
    C2    C  11.0000      0.1317    0.4719    0.4233  .  
    C3    C  11.0000      0.2663    0.4434    0.3514  .  
    C4    C  11.0000      0.3952    0.3512    0.3660  .  
    C5    C  11.0000      0.5353    0.3248    0.2955  .  
    C6    C  11.0000      0.6616    0.2358    0.3134  .  
    C7    C  11.0000      0.6571    0.1652    0.4027  .  
    C8    C  11.0000      0.5265    0.1860    0.4711  .  
    C9    C  11.0000      0.3912    0.2803    0.4571  .  
   C10    C  11.0000      0.2587    0.3068    0.5284  .  
   C11    C  11.0000      0.1290    0.4019    0.5156  .  
   C12    C  11.0000      0.0070    0.6383    0.3177  .  
   C13    C  11.0000      0.0151    0.6972    0.2414  .  
   C14    C  11.0000      0.2774    0.7711    0.0912  .  
   C15    C  11.0000      0.3258    0.8787    0.0283  .  
   C16    C  11.0000      0.2534    0.6276    0.0017  .  
   C17    C  11.0000      0.4412    0.7818    0.2011  .  
   C18    C  11.0000      0.0623    0.9860    0.2366  .  
   C19    C  11.0000     -0.1531    0.7641    0.0056  .  
    H3    H  11.0000      0.2686    0.4892    0.2906  .  
    H5    H  11.0000      0.5398    0.3704    0.2349  .  
    H6    H  11.0000      0.7542    0.2204    0.2659  .  
    H7    H  11.0000      0.7466    0.1029    0.4144  .  
    H8    H  11.0000      0.5245    0.1371    0.5297  .  
   H10    H  11.0000      0.2557    0.2591    0.5878  .  
  H15A    H  11.0000      0.4367    0.8567   -0.0056  .  
  H15B    H  11.0000      0.3545    0.9701    0.0883  .  
  H15C    H  11.0000      0.2170    0.8781   -0.0378  .  
  H16A    H  11.0000      0.1545    0.6216   -0.0717  .  
  H16B    H  11.0000      0.2164    0.5592    0.0406  .  
  H16C    H  11.0000      0.3739    0.6096   -0.0215  .  
  H17A    H  11.0000      0.4099    0.7151    0.2432  .  
  H17B    H  11.0000      0.4612    0.8750    0.2578  .  
  H17C    H  11.0000      0.5575    0.7621    0.1728  .  
  H18A    H  11.0000     -0.0562    0.9988    0.2638  .  
  H18B    H  11.0000      0.0800    1.0483    0.1877  .  
  H18C    H  11.0000      0.1696    1.0063    0.3082  .  
  H19A    H  11.0000     -0.1632    0.6670   -0.0407  .  
  H19B    H  11.0000     -0.1320    0.8219   -0.0466  .  
  H19C    H  11.0000     -0.2710    0.7821    0.0322  .  
    SI    Si 11.0000      0.0501    0.8049    0.1420  .  

loop_
_atom_site_aniso_label
_atom_site_aniso_U_11
_atom_site_aniso_U_22
_atom_site_aniso_U_33
_atom_site_aniso_U_23
_atom_site_aniso_U_13
_atom_site_aniso_U_12
    C1      0.0212     0.0217     0.0170     0.0098     0.0028    -0.0009
    C2      0.0203     0.0219     0.0159     0.0060     0.0043    -0.0018
    C3      0.0274     0.0248     0.0184     0.0106     0.0066     0.0021
    C4      0.0233     0.0242     0.0158     0.0026     0.0052    -0.0010
    C5      0.0312     0.0338     0.0218     0.0077     0.0101     0.0035
    C6      0.0290     0.0374     0.0261     0.0028     0.0116     0.0072
    C7      0.0310     0.0312     0.0298     0.0049     0.0074     0.0114
    C8      0.0333     0.0253     0.0247     0.0077     0.0065     0.0066
    C9      0.0239     0.0203     0.0184     0.0042     0.0044     0.0006
   C10      0.0272     0.0207     0.0192     0.0091     0.0052     0.0010
   C11      0.0205     0.0212     0.0187     0.0074     0.0044    -0.0001
   C12      0.0203     0.0242     0.0212     0.0074     0.0074     0.0045
   C13      0.0209     0.0297     0.0256     0.0136     0.0097     0.0064
   C14      0.0269     0.0274     0.0253     0.0138     0.0105     0.0050
   C15      0.0349     0.0536     0.0460     0.0320     0.0216     0.0114
   C16      0.0577     0.0419     0.0573     0.0061     0.0329     0.0137
   C17      0.0271     0.0737     0.0428     0.0331     0.0113     0.0092
   C18      0.0705     0.0340     0.0456     0.0163     0.0292     0.0189
   C19      0.0288     0.0628     0.0427     0.0360     0.0074     0.0064
    H3  . . . . . .
    H5  . . . . . .
    H6  . . . . . .
    H7  . . . . . .
    H8  . . . . . .
   H10  . . . . . .
  H15A  . . . . . .
  H15B  . . . . . .
  H15C  . . . . . .
  H16A  . . . . . .
  H16B  . . . . . .
  H16C  . . . . . .
  H17A  . . . . . .
  H17B  . . . . . .
  H17C  . . . . . .
  H18A  . . . . . .
  H18B  . . . . . .
  H18C  . . . . . .
  H19A  . . . . . .
  H19B  . . . . . .
  H19C  . . . . . .
    SI      0.0256     0.0264     0.0237     0.0154     0.0108     0.0071
