data_k15158_config-2
loop_
 _symmetry_equiv_pos_as_xyz
'x, y, z'
'-x, -y, -z'

_cell_length_a	9.3678(3)
_cell_length_b	10.3910(3)
_cell_length_c	10.4510(4)
_cell_angle_alpha	64.4912(18)
_cell_angle_beta	89.139(2)
_cell_angle_gamma	79.154(2)
loop_
 _atom_site_label
 _atom_site_type_symbol
 _atom_site_fract_x
 _atom_site_fract_y
 _atom_site_fract_z
 _atom_site_occupancy
 _atom_site_disorder_group
I1	I	-0.00431(2)	0.51904(2)	0.18334(2)	1.0	.
C1	C	0.5441(3)	0.4104(3)	0.4295(3)	1.0	.
C2	C	0.3971(3)	0.4842(3)	0.4126(3)	1.0	.
C3	C	0.2909(3)	0.4704(3)	0.3258(3)	1.0	.
H3	H	0.3189	0.4127	0.2761	1.0	.
C4	C	0.1497(3)	0.5393(3)	0.3136(3)	1.0	.
C5	C	0.1043(3)	0.6257(3)	0.3868(3)	1.0	.
H5	H	0.0048	0.6712	0.3790	1.0	.
C6	C	0.2034(3)	0.6431(3)	0.4680(3)	1.0	.
H6	H	0.1726	0.7029	0.5151	1.0	.
C7	C	0.3532(3)	0.5735(3)	0.4846(3)	1.0	.
C8	C	0.5853(3)	0.3180(3)	0.3605(3)	1.0	.
C9	C	0.6171(3)	0.2393(3)	0.3023(3)	1.0	.
Si1'	Si	0.6572(12)	0.0981(8)	0.2295(8)	1.0	2
C10'	C	0.5449(8)	-0.0475(8)	0.3007(8)	1.0	2
H10'	H	0.5570	-0.0893	0.4068	1.0	2
C11'	C	0.3809(8)	0.0099(11)	0.2590(11)	1.0	2
H11D	H	0.3467	0.0896	0.2855	1.0	2
H11E	H	0.3630	0.0456	0.1561	1.0	2
H11F	H	0.3283	-0.0689	0.3088	1.0	2
C12'	C	0.6039(11)	-0.1736(8)	0.2610(9)	1.0	2
H12D	H	0.7085	-0.2079	0.2889	1.0	2
H12E	H	0.5529	-0.2537	0.3108	1.0	2
H12F	H	0.5876	-0.1393	0.1581	1.0	2
C13'	C	0.6343(8)	0.2176(8)	0.0304(7)	1.0	2
H13'	H	0.6971	0.2907	0.0125	1.0	2
C14'	C	0.6933(10)	0.1341(9)	-0.0591(8)	1.0	2
H14D	H	0.7920	0.0781	-0.0211	1.0	2
H14E	H	0.6293	0.0677	-0.0541	1.0	2
H14F	H	0.6957	0.2040	-0.1584	1.0	2
C15'	C	0.4793(16)	0.3066(18)	-0.027(2)	1.0	2
H15D	H	0.4441	0.3582	0.0306	1.0	2
H15E	H	0.4807	0.3774	-0.1259	1.0	2
H15F	H	0.4143	0.2411	-0.0216	1.0	2
C16'	C	0.8549(7)	0.0091(8)	0.2901(8)	1.0	2
H16'	H	0.8848	-0.0625	0.2497	1.0	2
C17'	C	0.8737(10)	-0.0734(11)	0.4516(9)	1.0	2
H17D	H	0.8092	-0.1437	0.4843	1.0	2
H17E	H	0.9751	-0.1251	0.4811	1.0	2
H17F	H	0.8489	-0.0045	0.4934	1.0	2
C18'	C	0.9556(12)	0.1189(14)	0.2392(12)	1.0	2
H18D	H	0.9435	0.1719	0.1353	1.0	2
H18E	H	0.9308	0.1877	0.2809	1.0	2
H18F	H	1.0570	0.0672	0.2686	1.0	2
