data_k06143_config-1
loop_
 _symmetry_equiv_pos_as_xyz
'x, y, z'
'-x, -y, -z'

_cell_length_a	8.9992(1)
_cell_length_b	10.4922(1)
_cell_length_c	11.2633(2)
_cell_angle_alpha	108.8144(7)
_cell_angle_beta	95.9468(6)
_cell_angle_gamma	92.1074(7)
loop_
 _atom_site_label
 _atom_site_type_symbol
 _atom_site_fract_x
 _atom_site_fract_y
 _atom_site_fract_z
 _atom_site_occupancy
 _atom_site_disorder_group
C1	C	0.5429(5)	0.9050(4)	0.5592(4)	1.0	.
C2	C	0.6365(5)	0.9356(4)	0.4776(4)	1.0	.
C3	C	0.7719(5)	0.8725(4)	0.4529(4)	1.0	.
H3	H	0.8026	0.8110	0.4952	1.0	1
C4	C	0.855(2)	0.897(2)	0.374(2)	1.0	1
S5	S	1.0231(3)	0.8255(2)	0.3282(2)	1.0	1
C6	C	1.0332(16)	0.9220(17)	0.2264(17)	1.0	1
I1	I	1.2082(2)	0.89403(18)	0.11694(17)	1.0	1
C7	C	0.9244(14)	1.0007(12)	0.2283(11)	1.0	1
H7	H	0.9175	1.0596	0.1795	1.0	1
C8	C	0.815(2)	0.991(2)	0.311(2)	1.0	1
C9	C	0.6858(6)	1.0605(4)	0.3340(4)	1.0	.
H9	H	0.6612	1.1257	0.2944	1.0	1
C10	C	0.5927(5)	1.0327(4)	0.4171(4)	1.0	.
C11	C	0.5838(5)	0.8073(4)	0.6191(4)	1.0	.
C12	C	0.6166(5)	0.7266(5)	0.6713(4)	1.0	.
Si1	Si	0.6614(3)	0.6074(3)	0.7552(2)	1.0	1
C13	C	0.7098(7)	0.7184(5)	0.9249(5)	1.0	1
H13	H	0.7967	0.7807	0.9250	1.0	1
C14	C	0.5864(11)	0.8102(10)	0.9757(9)	1.0	1
H14A	H	0.5024	0.7560	0.9886	1.0	1
H14B	H	0.5518	0.8548	0.9148	1.0	1
H14C	H	0.6261	0.8786	1.0563	1.0	1
C15	C	0.7660(9)	0.6417(7)	1.0116(6)	1.0	1
H15A	H	0.8009	0.7056	1.0958	1.0	1
H15B	H	0.8491	0.5894	0.9775	1.0	1
H15C	H	0.6846	0.5803	1.0176	1.0	1
C16	C	0.5001(7)	0.4767(6)	0.7227(5)	1.0	1
H16	H	0.4780	0.4376	0.6287	1.0	1
C17	C	0.3575(7)	0.5341(8)	0.7695(7)	1.0	1
H17A	H	0.2744	0.4643	0.7366	1.0	1
H17B	H	0.3361	0.6107	0.7402	1.0	1
H17C	H	0.3694	0.5647	0.8621	1.0	1
C18	C	0.5378(9)	0.3592(6)	0.7693(7)	1.0	1
H18A	H	0.5690	0.3934	0.8606	1.0	1
H18B	H	0.6194	0.3129	0.7260	1.0	1
H18C	H	0.4492	0.2957	0.7512	1.0	1
C19	C	0.8304(7)	0.5225(6)	0.6945(5)	1.0	1
H19	H	0.8592	0.4625	0.7450	1.0	1
C20	C	0.7970(9)	0.4328(10)	0.5547(7)	1.0	1
H20A	H	0.7754	0.4897	0.5020	1.0	1
H20B	H	0.7101	0.3694	0.5445	1.0	1
H20C	H	0.8842	0.3822	0.5289	1.0	1
C21	C	0.9634(8)	0.6257(11)	0.7136(8)	1.0	1
H21A	H	1.0462	0.5798	0.6718	1.0	1
H21B	H	0.9961	0.6680	0.8042	1.0	1
H21C	H	0.9330	0.6951	0.6770	1.0	1
