data_x14203_config-1
loop_
 _symmetry_equiv_pos_as_xyz
'x, y, z'
'-x, -y, -z'

_cell_length_a	7.0710(2)
_cell_length_b	7.1814(2)
_cell_length_c	16.7266(6)
_cell_angle_alpha	97.893(2)
_cell_angle_beta	93.704(2)
_cell_angle_gamma	106.387(2)
loop_
 _atom_site_label
 _atom_site_type_symbol
 _atom_site_fract_x
 _atom_site_fract_y
 _atom_site_fract_z
 _atom_site_occupancy
 _atom_site_disorder_group
Si1	Si	0.75628(9)	0.35428(9)	0.17565(3)	1.0	.
C1	C	0.5662(3)	0.4546(3)	0.42377(12)	1.0	.
C2	C	0.3673(3)	0.3647(3)	0.43624(12)	1.0	.
C3	C	0.2342(3)	0.2263(3)	0.37462(12)	1.0	.
H3	H	0.2780	0.1901	0.3239	1.0	1
C4	C	0.0419(3)	0.1449(3)	0.38844(12)	1.0	1
S5	S	-0.14320(11)	-0.02899(15)	0.32059(5)	1.0	1
C6	C	-0.3113(4)	-0.0191(4)	0.39239(17)	1.0	1
F1	F	-0.4987(2)	-0.1315(3)	0.37087(11)	1.0	1
C7	C	-0.2376(9)	0.0989(12)	0.4611(4)	1.0	1
H7	H	-0.3138	0.1171	0.5046	1.0	1
C8	C	-0.0301(3)	0.1976(3)	0.46358(13)	1.0	1
C9	C	0.0971(3)	0.3275(3)	0.52485(12)	1.0	.
H9	H	0.0504	0.3607	0.5753	1.0	1
C10	C	0.2991(3)	0.4132(3)	0.51345(12)	1.0	.
C11	C	0.6307(3)	0.4132(3)	0.34550(12)	1.0	.
C12	C	0.6825(3)	0.3826(3)	0.27927(13)	1.0	.
C13	C	1.0279(4)	0.3833(4)	0.18166(16)	1.0	.
H13A	H	1.0527	0.2703	0.2037	1.0	.
H13B	H	1.0680	0.3781	0.1260	1.0	.
C14	C	1.1585(5)	0.5721(6)	0.2335(2)	1.0	.
H14A	H	1.1238	0.5771	0.2894	1.0	.
H14B	H	1.1379	0.6855	0.2116	1.0	.
H14C	H	1.2980	0.5756	0.2330	1.0	.
C15	C	0.6935(4)	0.5521(4)	0.12734(15)	1.0	.
H15A	H	0.5476	0.5249	0.1218	1.0	.
H15B	H	0.7508	0.6789	0.1643	1.0	.
C16	C	0.7658(5)	0.5750(5)	0.04392(17)	1.0	.
H16A	H	0.7181	0.6750	0.0219	1.0	.
H16B	H	0.7146	0.4491	0.0071	1.0	.
H16C	H	0.9111	0.6155	0.0494	1.0	.
C17	C	0.6146(5)	0.1037(4)	0.12002(15)	1.0	.
H17A	H	0.6379	0.0977	0.0621	1.0	.
H17B	H	0.6685	0.0055	0.1418	1.0	.
C18	C	0.3924(5)	0.0455(5)	0.1251(2)	1.0	.
H18A	H	0.3669	0.0460	0.1820	1.0	.
H18B	H	0.3308	-0.0865	0.0941	1.0	.
H18C	H	0.3363	0.1396	0.1024	1.0	.
