data_x14381_config-2
loop_
 _symmetry_equiv_pos_as_xyz
'x, y, z'
'-x, y+1/2, -z+1/2'
'-x, -y, -z'
'x, -y-1/2, z-1/2'

_cell_length_a	15.5490(5)
_cell_length_b	6.8561(2)
_cell_length_c	15.4245(5)
_cell_angle_alpha	90
_cell_angle_beta	98.125(1)
_cell_angle_gamma	90
loop_
 _atom_site_label
 _atom_site_type_symbol
 _atom_site_fract_x
 _atom_site_fract_y
 _atom_site_fract_z
 _atom_site_occupancy
 _atom_site_disorder_group
Si1	Si	0.86542(2)	0.41668(6)	0.65695(2)	1.0	.
C1	C	0.59040(9)	0.49291(19)	0.53114(10)	1.0	.
C2	C	0.56204(10)	0.49624(19)	0.43985(10)	1.0	.
C3	C	0.62198(10)	0.4943(2)	0.37819(10)	1.0	.
C4'	C	0.59261(10)	0.49802(19)	0.29035(10)	1.0	2
C5'	C	0.6427(5)	0.4971(13)	0.2199(5)	1.0	2
H5'	H	0.7043	0.4939	0.2265	1.0	2
F1'	F	0.61243(18)	0.5011(4)	0.06062(18)	1.0	2
C6'	C	0.5889(3)	0.5015(15)	0.1406(4)	1.0	2
S7'	S	0.47681(13)	0.5029(3)	0.14586(7)	1.0	2
C8'	C	0.50102(11)	0.50160(19)	0.25899(10)	1.0	2
C9	C	0.44194(10)	0.50359(19)	0.31654(10)	1.0	.
C10	C	0.47023(10)	0.50231(18)	0.40825(10)	1.0	.
C11	C	0.68080(10)	0.4793(2)	0.56474(10)	1.0	.
C12	C	0.75561(10)	0.4612(2)	0.59806(10)	1.0	.
C13	C	0.86558(10)	0.4748(2)	0.77577(10)	1.0	.
H13	H	0.9259	0.4490	0.8056	1.0	.
C14	C	0.80502(10)	0.3425(2)	0.82030(10)	1.0	.
H14A	H	0.7445	0.3600	0.7914	1.0	.
H14B	H	0.8214	0.2045	0.8131	1.0	.
C15	C	0.80995(12)	0.3885(2)	0.91746(11)	1.0	.
H15A	H	0.7683	0.3049	0.9433	1.0	.
H15B	H	0.8690	0.3586	0.9475	1.0	.
C16	C	0.78917(12)	0.6020(2)	0.93232(11)	1.0	.
H16A	H	0.7283	0.6294	0.9069	1.0	.
H16B	H	0.7953	0.6287	0.9960	1.0	.
C17	C	0.84998(11)	0.7345(2)	0.89023(11)	1.0	.
H17A	H	0.9102	0.7165	0.9200	1.0	.
H17B	H	0.8334	0.8722	0.8978	1.0	.
C18	C	0.84654(10)	0.6904(2)	0.79259(10)	1.0	.
H18A	H	0.8896	0.7729	0.7683	1.0	.
H18B	H	0.7882	0.7241	0.7618	1.0	.
C19	C	0.94532(10)	0.5730(2)	0.60924(11)	1.0	.
H19A	H	0.9440	0.5409	0.5471	1.0	.
H19B	H	1.0038	0.5494	0.6405	1.0	.
H19C	H	0.9301	0.7106	0.6150	1.0	.
C20	C	0.89328(10)	0.1528(2)	0.64754(10)	1.0	.
H20A	H	0.8423	0.0729	0.6539	1.0	.
H20B	H	0.9409	0.1188	0.6937	1.0	.
H20C	H	0.9112	0.1285	0.5901	1.0	.
