data_x14411_config-1
loop_
 _symmetry_equiv_pos_as_xyz
'x, y, z'
'-x, -y, -z'

_cell_length_a	8.8077(5)
_cell_length_b	9.7264(5)
_cell_length_c	16.0841(9)
_cell_angle_alpha	100.053(3)
_cell_angle_beta	92.168(3)
_cell_angle_gamma	110.363(3)
loop_
 _atom_site_label
 _atom_site_type_symbol
 _atom_site_fract_x
 _atom_site_fract_y
 _atom_site_fract_z
 _atom_site_occupancy
 _atom_site_disorder_group
Si1	Si	0.67724(6)	0.26591(5)	0.78786(3)	1.0	.
C1	C	0.5397(2)	0.43315(19)	0.56500(11)	1.0	.
C2	C	0.6655(2)	0.53856(19)	0.53206(11)	1.0	.
C3	C	0.8308(2)	0.5808(2)	0.56442(12)	1.0	.
H3	H	0.8592	0.5362	0.6077	1.0	1
C4	C	0.9486(2)	0.6858(2)	0.53313(12)	1.0	1
S5	S	1.15711(11)	0.76356(11)	0.56963(7)	1.0	1
C6	C	1.1871(4)	0.8803(4)	0.4963(2)	1.0	1
F1	F	1.3390(2)	0.9732(3)	0.49579(14)	1.0	1
C7	C	1.0562(9)	0.8705(10)	0.4478(4)	1.0	1
H7	H	1.0566	0.9304	0.4069	1.0	1
C8	C	0.9100(2)	0.7525(2)	0.46684(12)	1.0	1
C9	C	0.7515(2)	0.7129(2)	0.43393(11)	1.0	.
H9	H	0.7262	0.7571	0.3897	1.0	1
C10	C	0.6255(2)	0.60614(19)	0.46588(11)	1.0	.
C11	C	0.5803(2)	0.37004(19)	0.63269(11)	1.0	.
C12	C	0.6180(2)	0.3231(2)	0.69182(12)	1.0	.
C13	C	0.5167(2)	0.2716(2)	0.86197(11)	1.0	.
H13	H	0.5045	0.3706	0.8644	1.0	.
C14	C	0.3494(2)	0.1518(3)	0.82767(14)	1.0	.
H14A	H	0.3174	0.1641	0.7705	1.0	.
H14B	H	0.3571	0.0515	0.8218	1.0	.
C15	C	0.2183(3)	0.1610(3)	0.88536(15)	1.0	.
H15A	H	0.2017	0.2568	0.8863	1.0	.
H15B	H	0.1143	0.0784	0.8624	1.0	.
C16	C	0.2654(3)	0.1507(2)	0.97486(14)	1.0	.
H16A	H	0.2723	0.0513	0.9747	1.0	.
H16B	H	0.1808	0.1616	1.0115	1.0	.
C17	C	0.4287(3)	0.2724(3)	1.01044(14)	1.0	.
H17A	H	0.4597	0.2613	1.0680	1.0	.
H17B	H	0.4186	0.3717	1.0154	1.0	.
C18	C	0.5617(3)	0.2641(3)	0.95352(13)	1.0	.
H18A	H	0.5801	0.1694	0.9539	1.0	.
H18B	H	0.6646	0.3480	0.9767	1.0	.
C19	C	0.6944(2)	0.0777(2)	0.75317(11)	1.0	.
H19	H	0.7896	0.0960	0.7191	1.0	.
C20	C	0.5515(3)	-0.0407(2)	0.69406(14)	1.0	.
H20A	H	0.4533	-0.0660	0.7248	1.0	.
H20B	H	0.5287	0.0006	0.6450	1.0	.
C21	C	0.5864(3)	-0.1826(2)	0.66196(14)	1.0	.
H21A	H	0.4887	-0.2587	0.6269	1.0	.
H21B	H	0.6767	-0.1599	0.6256	1.0	.
C22	C	0.6321(2)	-0.2450(2)	0.73541(13)	1.0	.
H22A	H	0.5376	-0.2781	0.7681	1.0	.
H22B	H	0.6609	-0.3332	0.7129	1.0	.
C23	C	0.7746(3)	-0.1283(2)	0.79326(15)	1.0	.
H23A	H	0.8716	-0.1019	0.7617	1.0	.
H23B	H	0.7994	-0.1702	0.8417	1.0	.
C24	C	0.7384(3)	0.0126(2)	0.82685(13)	1.0	.
H24A	H	0.8351	0.0881	0.8629	1.0	.
H24B	H	0.6468	-0.0119	0.8623	1.0	.
C25	C	0.8839(2)	0.4085(2)	0.83415(12)	1.0	.
H25	H	0.9162	0.3801	0.8870	1.0	.
C26	C	1.0152(2)	0.4095(2)	0.77379(13)	1.0	.
H26A	H	1.0255	0.3099	0.7632	1.0	.
H26B	H	0.9806	0.4278	0.7188	1.0	.
C27	C	1.1813(2)	0.5289(2)	0.80934(16)	1.0	.
H27A	H	1.2229	0.5034	0.8603	1.0	.
H27B	H	1.2591	0.5300	0.7664	1.0	.
C28	C	1.1711(3)	0.6836(2)	0.83292(16)	1.0	.
H28A	H	1.2789	0.7570	0.8588	1.0	.
H28B	H	1.1410	0.7141	0.7810	1.0	.
C29	C	1.0454(2)	0.6839(2)	0.89508(15)	1.0	.
H29A	H	1.0367	0.7841	0.9073	1.0	.
H29B	H	1.0812	0.6631	0.9491	1.0	.
C30	C	0.8785(2)	0.5661(2)	0.85919(14)	1.0	.
H30A	H	0.8378	0.5935	0.8087	1.0	.
H30B	H	0.8010	0.5658	0.9022	1.0	.
