data_x14457_config-1
loop_
 _symmetry_equiv_pos_as_xyz
'x, y, z'
'-x, -y, -z'

_cell_length_a	8.3967(4)
_cell_length_b	8.7441(4)
_cell_length_c	16.6826(8)
_cell_angle_alpha	91.936(2)
_cell_angle_beta	103.447(3)
_cell_angle_gamma	109.807(2)
loop_
 _atom_site_label
 _atom_site_type_symbol
 _atom_site_fract_x
 _atom_site_fract_y
 _atom_site_fract_z
 _atom_site_occupancy
 _atom_site_disorder_group
Si1	Si	0.48530(7)	0.85255(7)	0.80242(3)	1.0	.
C1	C	0.4963(3)	0.5941(3)	0.56943(13)	1.0	.
C2	C	0.3430(3)	0.4624(3)	0.52706(14)	1.0	.
C3	C	0.1866(3)	0.4204(3)	0.55395(14)	1.0	.
H3	H	0.1824	0.4831	0.6005	1.0	1
C4	C	0.0428(3)	0.2902(3)	0.51302(15)	1.0	1
S5	S	-0.16146(14)	0.21268(13)	0.54223(7)	1.0	1
C6	C	-0.2370(9)	0.0581(9)	0.4580(7)	1.0	1
F1	F	-0.4001(5)	-0.0521(4)	0.4489(2)	1.0	1
C7	C	-0.1215(13)	0.0624(12)	0.4135(6)	1.0	1
H7	H	-0.1479	-0.0152	0.3666	1.0	1
C8	C	0.0456(3)	0.1940(3)	0.44237(14)	1.0	1
C9	C	0.1941(3)	0.2329(3)	0.41459(14)	1.0	.
H9	H	0.1946	0.1702	0.3671	1.0	1
C10	C	0.3471(3)	0.3664(3)	0.45635(13)	1.0	.
C11	C	0.4946(3)	0.6873(3)	0.64103(14)	1.0	.
C12	C	0.4931(3)	0.7607(3)	0.70355(14)	1.0	.
C13	C	0.4461(3)	1.0487(3)	0.78569(13)	1.0	.
C14	C	0.5276(3)	1.1573(3)	0.73575(15)	1.0	.
H14	H	0.6071	1.1327	0.7099	1.0	.
C15	C	0.4944(3)	1.3006(3)	0.72341(17)	1.0	.
H15	H	0.5500	1.3726	0.6886	1.0	.
C16	C	0.3813(3)	1.3394(3)	0.76127(17)	1.0	.
H16	H	0.3599	1.4384	0.7531	1.0	.
C17	C	0.2991(3)	1.2341(3)	0.81111(17)	1.0	.
H17	H	0.2214	1.2607	0.8374	1.0	.
C18	C	0.3300(3)	1.0888(3)	0.82287(15)	1.0	.
H18	H	0.2715	1.0160	0.8566	1.0	.
C19	C	0.2882(3)	0.7044(3)	0.82892(14)	1.0	.
C20	C	0.2841(3)	0.6469(3)	0.90572(15)	1.0	.
H20	H	0.3876	0.6845	0.9501	1.0	.
C21	C	0.1314(3)	0.5356(3)	0.91838(17)	1.0	.
H21	H	0.1319	0.4972	0.9710	1.0	.
C22	C	-0.0207(3)	0.4807(3)	0.85513(19)	1.0	.
H22	H	-0.1251	0.4050	0.8640	1.0	.
C23	C	-0.0202(3)	0.5367(3)	0.77848(18)	1.0	.
H23	H	-0.1246	0.4992	0.7346	1.0	.
C24	C	0.1321(3)	0.6475(3)	0.76557(16)	1.0	.
H24	H	0.1305	0.6854	0.7128	1.0	.
C25	C	0.7042(3)	0.8925(3)	0.87987(13)	1.0	.
C26	C	0.8506(3)	0.9900(3)	0.84112(16)	1.0	.
H26A	H	0.9639	1.0210	0.8824	1.0	.
H26B	H	0.8305	1.0889	0.8231	1.0	.
H26C	H	0.8509	0.9223	0.7932	1.0	.
C27	C	0.7156(3)	0.9961(3)	0.95856(15)	1.0	.
H27A	H	0.6208	0.9369	0.9833	1.0	.
H27B	H	0.7045	1.1004	0.9441	1.0	.
H27C	H	0.8289	1.0173	0.9985	1.0	.
C28	C	0.7301(3)	0.7325(3)	0.90124(17)	1.0	.
H28A	H	0.7161	0.6653	0.8501	1.0	.
H28B	H	0.6429	0.6727	0.9300	1.0	.
H28C	H	0.8481	0.7569	0.9374	1.0	.
