data_x15373_config-2
loop_
 _symmetry_equiv_pos_as_xyz
'x, y, z'
'-x, -y, -z'

_cell_length_a	6.6763(2)
_cell_length_b	7.2490(2)
_cell_length_c	16.6736(4)
_cell_angle_alpha	97.840(1)
_cell_angle_beta	94.768(2)
_cell_angle_gamma	103.770(2)
loop_
 _atom_site_label
 _atom_site_type_symbol
 _atom_site_fract_x
 _atom_site_fract_y
 _atom_site_fract_z
 _atom_site_occupancy
 _atom_site_disorder_group
Si1	Si	0.78889(8)	0.37902(8)	0.17776(3)	1.0	.
C1	C	0.5740(3)	0.4585(3)	0.42377(11)	1.0	.
C2	C	0.3682(3)	0.3652(3)	0.43523(12)	1.0	.
C3	C	0.2375(3)	0.2273(3)	0.37274(11)	1.0	.
C4'	C	0.0388(3)	0.1413(3)	0.38553(12)	1.0	2
C5'	C	-0.107(3)	0.000(5)	0.3279(14)	1.0	2
H5'	H	-0.0798	-0.0453	0.2746	1.0	2
C6'	C	-0.285(2)	-0.063(3)	0.3572(10)	1.0	2
H6'	H	-0.3978	-0.1617	0.3279	1.0	2
S7'	S	-0.2929(18)	0.055(3)	0.4547(10)	1.0	2
C8'	C	-0.0409(3)	0.1917(3)	0.46010(12)	1.0	2
C9	C	0.0851(3)	0.3219(3)	0.52234(12)	1.0	.
C10	C	0.2927(3)	0.4098(3)	0.51222(11)	1.0	.
C11	C	0.6447(3)	0.4221(3)	0.34625(12)	1.0	.
C12	C	0.7032(3)	0.3963(3)	0.27989(12)	1.0	.
C13	C	1.0789(3)	0.4307(3)	0.18784(13)	1.0	.
H13A	H	1.1213	0.3239	0.2099	1.0	.
H13B	H	1.1237	0.4325	0.1328	1.0	.
C14	C	1.1939(3)	0.6201(4)	0.24230(16)	1.0	.
H14A	H	1.1544	0.7275	0.2209	1.0	.
H14B	H	1.3441	0.6364	0.2430	1.0	.
H14C	H	1.1569	0.6177	0.2979	1.0	.
C15	C	0.6931(3)	0.5634(3)	0.12759(12)	1.0	.
H15A	H	0.5394	0.5240	0.1192	1.0	.
H15B	H	0.7351	0.6877	0.1652	1.0	.
C16	C	0.7719(3)	0.5946(4)	0.04555(14)	1.0	.
H16A	H	0.9236	0.6412	0.0535	1.0	.
H16B	H	0.7111	0.6898	0.0231	1.0	.
H16C	H	0.7314	0.4726	0.0076	1.0	.
C17	C	0.6750(4)	0.1308(3)	0.11970(13)	1.0	.
H17A	H	0.6917	0.1332	0.0614	1.0	.
H17B	H	0.7558	0.0439	0.1391	1.0	.
C18	C	0.4462(4)	0.0463(4)	0.12671(16)	1.0	.
H18A	H	0.4270	0.0433	0.1842	1.0	.
H18B	H	0.4017	-0.0849	0.0961	1.0	.
H18C	H	0.3629	0.1261	0.1043	1.0	.
