data_k07305_config-2
loop_
 _symmetry_equiv_pos_as_xyz
'x, y, z'
'-x, -y, -z'

_cell_length_a	7.5836(1)
_cell_length_b	14.2117(2)
_cell_length_c	17.6747(3)
_cell_angle_alpha	70.7200(6)
_cell_angle_beta	81.7256(6)
_cell_angle_gamma	83.1750(7)
loop_
 _atom_site_label
 _atom_site_type_symbol
 _atom_site_fract_x
 _atom_site_fract_y
 _atom_site_fract_z
 _atom_site_occupancy
 _atom_site_disorder_group
Si1	Si	0.25023(5)	0.60864(3)	0.81077(2)	1.0	.
C1	C	0.61953(17)	0.67439(10)	0.58113(8)	1.0	.
Si2	Si	1.14637(5)	0.85935(3)	0.18771(2)	1.0	.
F1	F	0.49264(11)	0.98374(6)	0.67371(5)	1.0	.
F2	F	0.59288(12)	1.17432(6)	0.61265(5)	1.0	.
F3	F	0.80488(11)	1.23372(6)	0.47310(5)	1.0	.
F4	F	0.91982(12)	1.10570(6)	0.38758(5)	1.0	.
C2	C	0.66788(17)	0.77504(10)	0.55025(8)	1.0	.
C3	C	0.60922(17)	0.84385(10)	0.59228(8)	1.0	.
H3	H	0.5351	0.8229	0.6420	1.0	.
C4	C	0.65779(17)	0.94156(10)	0.56233(8)	1.0	.
C5	C	0.59948(18)	1.01258(10)	0.60365(8)	1.0	.
C6	C	0.64818(18)	1.10738(10)	0.57384(8)	1.0	.
C7	C	0.75907(18)	1.13896(10)	0.49977(9)	1.0	.
C8	C	0.81577(18)	1.07482(10)	0.45774(8)	1.0	.
C9	C	0.76834(17)	0.97407(10)	0.48672(8)	1.0	.
C10	C	0.82511(17)	0.90719(10)	0.44439(8)	1.0	.
H10	H	0.8971	0.9291	0.3941	1.0	.
C11	C	0.77816(16)	0.80773(10)	0.47447(8)	1.0	.
C12	C	0.83614(17)	0.73888(10)	0.43104(8)	1.0	.
C13	C	0.79249(17)	0.63882(10)	0.46352(8)	1.0	.
C14	C	0.85225(18)	0.56747(10)	0.42227(8)	1.0	.
H14	H	0.9201	0.5883	0.3709	1.0	.
C15	C	0.81354(19)	0.47055(10)	0.45538(8)	1.0	.
H15	H	0.8542	0.4246	0.4268	1.0	.
C16	C	0.71241(19)	0.43692(11)	0.53263(8)	1.0	.
H16	H	0.6893	0.3684	0.5560	1.0	.
C17	C	0.64917(18)	0.50289(10)	0.57284(8)	1.0	.
H17	H	0.5794	0.4801	0.6236	1.0	.
C18	C	0.68550(17)	0.60563(10)	0.54021(8)	1.0	.
C19	C	0.50119(17)	0.64571(10)	0.65436(8)	1.0	.
C20	C	0.39736(18)	0.62893(10)	0.71508(8)	1.0	.
C21	C	0.01935(19)	0.58883(10)	0.79415(8)	1.0	.
H21	H	-0.0579	0.5770	0.8468	1.0	.
C22	C	-0.0645(2)	0.68060(12)	0.73272(10)	1.0	.
H22A	H	0.0083	0.6937	0.6803	1.0	.
H22B	H	-0.0699	0.7388	0.7513	1.0	.
H22C	H	-0.1856	0.6680	0.7273	1.0	.
C23	C	0.0209(2)	0.49632(12)	0.76757(10)	1.0	.
H23A	H	-0.0983	0.4915	0.7545	1.0	.
H23B	H	0.0542	0.4363	0.8114	1.0	.
H23C	H	0.1078	0.5021	0.7198	1.0	.
C24'	C	0.3586(9)	0.5163(6)	0.9008(5)	1.0	2
H24'	H	0.3544	0.5565	0.9381	1.0	2
C25'	C	0.551(2)	0.4776(15)	0.8950(12)	1.0	2
H25D	H	0.6240	0.5326	0.8632	1.0	2
H25E	H	0.5651	0.4258	0.8688	1.0	2
H25F	H	0.5883	0.4492	0.9493	1.0	2
C26'	C	0.238(2)	0.4349(13)	0.9477(10)	1.0	2
H26D	H	0.1136	0.4632	0.9497	1.0	2
H26E	H	0.2709	0.4050	1.0027	1.0	2
H26F	H	0.2501	0.3834	0.9213	1.0	2
C27	C	0.24547(19)	0.72731(11)	0.83735(9)	1.0	.
H27	H	0.1978	0.7823	0.7913	1.0	.
C28	C	0.1157(2)	0.72758(13)	0.91213(10)	1.0	.
H28A	H	0.1563	0.6748	0.9594	1.0	.
H28B	H	-0.0039	0.7155	0.9043	1.0	.
H28C	H	0.1117	0.7926	0.9206	1.0	.
C29	C	0.4297(2)	0.75652(13)	0.84478(10)	1.0	.
H29A	H	0.4189	0.8253	0.8464	1.0	.
H29B	H	0.5135	0.7518	0.7982	1.0	.
H29C	H	0.4742	0.7111	0.8945	1.0	.
C30	C	0.93944(18)	0.77376(10)	0.35387(8)	1.0	.
C31	C	1.02434(18)	0.80740(10)	0.28887(8)	1.0	.
C32	C	0.97924(19)	0.88631(11)	0.11219(8)	1.0	.
H32	H	1.0417	0.9205	0.0578	1.0	.
C33	C	0.9160(2)	0.78896(11)	0.10923(9)	1.0	.
H33A	H	0.8588	0.7521	0.1625	1.0	.
H33B	H	1.0188	0.7479	0.0937	1.0	.
H33C	H	0.8300	0.8048	0.0695	1.0	.
C34	C	0.8189(2)	0.95683(12)	0.12829(10)	1.0	.
H34A	H	0.7350	0.9672	0.0884	1.0	.
H34B	H	0.8608	1.0212	0.1241	1.0	.
H34C	H	0.7586	0.9270	0.1826	1.0	.
C35	C	1.32177(18)	0.75917(11)	0.17286(8)	1.0	.
H35	H	1.2579	0.6989	0.1791	1.0	.
C36	C	1.4221(2)	0.78998(12)	0.08744(9)	1.0	.
H36A	H	1.4882	0.8484	0.0794	1.0	.
H36B	H	1.3362	0.8067	0.0476	1.0	.
H36C	H	1.5059	0.7345	0.0808	1.0	.
C37	C	1.4524(2)	0.72795(11)	0.23730(9)	1.0	.
H37A	H	1.5340	0.6718	0.2303	1.0	.
H37B	H	1.3851	0.7076	0.2911	1.0	.
H37C	H	1.5213	0.7845	0.2316	1.0	.
C38	C	1.25099(18)	0.97647(10)	0.18212(8)	1.0	.
H38	H	1.3698	0.9545	0.2031	1.0	.
C39	C	1.2866(2)	1.04592(11)	0.09516(9)	1.0	.
H39A	H	1.1728	1.0697	0.0724	1.0	.
H39B	H	1.3620	1.0093	0.0627	1.0	.
H39C	H	1.3476	1.1032	0.0948	1.0	.
C40	C	1.1441(2)	1.03563(11)	0.23458(9)	1.0	.
H40A	H	1.2081	1.0935	0.2304	1.0	.
H40B	H	1.1298	0.9925	0.2909	1.0	.
H40C	H	1.0261	1.0587	0.2159	1.0	.
