data_k15150s_config-1
loop_
 _symmetry_equiv_pos_as_xyz
'x, y, z'
'-x, -y, -z'

_cell_length_a	9.765(2)
_cell_length_b	10.190(2)
_cell_length_c	14.858(3)
_cell_angle_alpha	93.36(3)
_cell_angle_beta	97.76(3)
_cell_angle_gamma	110.32(3)
loop_
 _atom_site_label
 _atom_site_type_symbol
 _atom_site_fract_x
 _atom_site_fract_y
 _atom_site_fract_z
 _atom_site_occupancy
 _atom_site_disorder_group
C1	C	0.5967(4)	0.0314(4)	0.5860(3)	1.0	.
C2	C	0.5178(4)	0.1180(4)	0.5586(3)	1.0	1
S1	S	0.5388(2)	0.26596(18)	0.62880(12)	1.0	1
C3	C	0.4208(4)	0.0848(4)	0.4742(3)	1.0	1
C4	C	0.3635(9)	0.1987(8)	0.4748(5)	1.0	1
H4	H	0.2951	0.2033	0.4243	1.0	1
C5	C	0.4071(4)	0.2954(4)	0.5458(2)	1.0	1
C6	C	0.3642(4)	0.4158(4)	0.5630(2)	1.0	1
S2	S	0.4530(2)	0.5349(2)	0.66138(14)	1.0	1
C7	C	0.2587(12)	0.4540(11)	0.5114(6)	1.0	1
H7	H	0.1988	0.4014	0.4562	1.0	1
C8	C	0.250(3)	0.581(2)	0.5501(12)	1.0	1
C9	C	0.154(2)	0.6484(14)	0.5135(10)	1.0	1
H9	H	0.0873	0.6113	0.4577	1.0	1
C10	C	0.1639(19)	0.7718(14)	0.5631(9)	1.0	1
S3	S	0.0639(2)	0.8797(2)	0.53274(17)	1.0	1
C11	C	0.147(3)	0.994(2)	0.6283(15)	1.0	1
H11	H	0.1211	1.0736	0.6435	1.0	1
C12	C	0.2545(11)	0.963(1)	0.6813(6)	1.0	1
H12	H	0.3163	1.0206	0.7344	1.0	1
C13	C	0.2623(18)	0.8306(15)	0.6461(9)	1.0	1
C14	C	0.3530(16)	0.7613(13)	0.6819(9)	1.0	1
H14	H	0.4171	0.7966	0.7389	1.0	1
C15	C	0.348(2)	0.6399(16)	0.6330(12)	1.0	1
C16	C	0.6898(5)	0.0584(5)	0.6728(3)	1.0	.
C17	C	0.7666(6)	0.0767(5)	0.7463(3)	1.0	.
Si1	Si	0.87800(18)	0.09025(16)	0.85813(10)	1.0	1
C18	C	0.8122(9)	-0.0890(8)	0.9003(5)	1.0	1
C19	C	0.7793(10)	-0.2188(7)	0.8239(6)	1.0	1
C20	C	0.718(1)	-0.3475(10)	0.8725(6)	1.0	1
C21	C	0.8987(10)	-0.2123(10)	0.7778(6)	1.0	1
C22	C	1.0776(8)	0.1734(8)	0.8525(5)	1.0	1
C23	C	1.1436(9)	0.3319(9)	0.8526(6)	1.0	1
C24	C	1.3190(8)	0.3605(10)	0.8546(6)	1.0	1
C25	C	1.0824(11)	0.3843(10)	0.7614(6)	1.0	1
C26	C	0.8381(10)	0.2167(9)	0.9426(6)	1.0	1
C27	C	0.6788(11)	0.1657(12)	0.9659(6)	1.0	1
C28	C	0.6539(13)	0.2148(16)	1.0575(8)	1.0	1
C29	C	0.5739(13)	0.2052(16)	0.8994(8)	1.0	1
