data_k15169_config-2
loop_
 _symmetry_equiv_pos_as_xyz
'x, y, z'
'-x, -y, -z'

_cell_length_a	8.0938(18)
_cell_length_b	11.616(3)
_cell_length_c	16.821(4)
_cell_angle_alpha	105.963(9)
_cell_angle_beta	101.942(9)
_cell_angle_gamma	94.874(9)
loop_
 _atom_site_label
 _atom_site_type_symbol
 _atom_site_fract_x
 _atom_site_fract_y
 _atom_site_fract_z
 _atom_site_occupancy
 _atom_site_disorder_group
Si1	Si	0.27910(18)	0.65277(12)	0.19335(8)	1.0	.
C1	C	0.4578(4)	0.5342(3)	0.4236(2)	1.0	.
C3'	C	0.3759(4)	0.4370(3)	0.5248(2)	1.0	2
C2'	C	0.3339(4)	0.4705(3)	0.4495(2)	1.0	2
C4'	C	0.1508(11)	0.4231(10)	0.4187(6)	1.0	2
H4'	H	0.0855	0.4330	0.3678	1.0	2
C5'	C	0.0774(19)	0.364(5)	0.4656(19)	1.0	2
S1'	S	0.2211(3)	0.3635(2)	0.55564(13)	1.0	2
C6'	C	-0.0996(15)	0.310(3)	0.4401(14)	1.0	2
S2'	S	-0.2394(3)	0.3122(2)	0.34937(14)	1.0	2
C7'	C	-0.1775(11)	0.2523(10)	0.4863(6)	1.0	2
H7'	H	-0.1202	0.2439	0.5393	1.0	2
C8'	C	-0.3577(12)	0.205(2)	0.4465(9)	1.0	2
C9'	C	-0.4731(14)	0.148(3)	0.4779(11)	1.0	2
H9'	H	-0.4380	0.1285	0.5294	1.0	2
C10'	C	-0.6467(19)	0.120(5)	0.4312(19)	1.0	2
S3'	S	-0.8104(4)	0.0462(5)	0.4568(3)	1.0	2
C11'	C	-0.9383(14)	0.037(3)	0.3611(10)	1.0	2
C12'	C	-0.8714(17)	0.102(2)	0.3170(12)	1.0	2
H12'	H	-0.9335	0.1154	0.2665	1.0	2
C13'	C	-0.6912(15)	0.151(4)	0.3568(15)	1.0	2
C14'	C	-0.5754(15)	0.204(2)	0.3239(10)	1.0	2
H14'	H	-0.6098	0.2214	0.2713	1.0	2
C15'	C	-0.4016(14)	0.234(2)	0.3711(9)	1.0	2
F1'	F	-1.1124(9)	0.0055(12)	0.3313(6)	1.0	2
C16	C	0.4104(5)	0.5718(4)	0.3478(3)	1.0	.
C17	C	0.3618(6)	0.6024(4)	0.2865(3)	1.0	.
C18	C	0.3579(9)	0.8148(6)	0.2210(4)	1.0	.
H18	H	0.2919	0.8506	0.2634	1.0	.
C19	C	0.5251(7)	0.8584(5)	0.2675(4)	1.0	.
H19A	H	0.6036	0.8322	0.2312	1.0	.
H19B	H	0.5488	0.8268	0.3163	1.0	.
H19C	H	0.5411	0.9471	0.2878	1.0	.
C20	C	0.2874(9)	0.8669(6)	0.1472(4)	1.0	.
H20A	H	0.3288	0.9540	0.1646	1.0	.
H20B	H	0.1623	0.8534	0.1336	1.0	.
H20C	H	0.3268	0.8262	0.0968	1.0	.
C21'	C	0.0423(12)	0.625(3)	0.180(2)	1.0	2
H21'	H	0.0044	0.5360	0.1643	1.0	2
C22'	C	-0.019(3)	0.689(3)	0.2633(11)	1.0	2
H22D	H	0.0309	0.6575	0.3096	1.0	2
H22E	H	0.0183	0.7768	0.2801	1.0	2
H22F	H	-0.1438	0.6729	0.2512	1.0	2
C23'	C	-0.029(2)	0.669(2)	0.1045(11)	1.0	2
H23D	H	-0.1171	0.6060	0.0626	1.0	2
H23E	H	0.0631	0.6874	0.0781	1.0	2
H23F	H	-0.0796	0.7426	0.1239	1.0	2
C24'	C	0.369(3)	0.5795(14)	0.1034(11)	1.0	2
H24C	H	0.2751	0.5476	0.0515	1.0	2
H24D	H	0.4477	0.6416	0.0937	1.0	2
C25'	C	0.4656(16)	0.4768(12)	0.1159(9)	1.0	2
H25C	H	0.5320	0.4593	0.0718	1.0	2
H25D	H	0.5496	0.5084	0.1716	1.0	2
C26'	C	0.3752(16)	0.3591(11)	0.1138(9)	1.0	2
H26C	H	0.3182	0.3736	0.1616	1.0	2
H26D	H	0.2845	0.3290	0.0603	1.0	2
C27'	C	0.4810(15)	0.2620(11)	0.1191(9)	1.0	2
H27C	H	0.5546	0.2840	0.1776	1.0	2
H27D	H	0.5570	0.2595	0.0797	1.0	2
C28'	C	0.380(2)	0.1320(11)	0.0977(8)	1.0	2
H28C	H	0.4615	0.0786	0.1137	1.0	2
H28D	H	0.2969	0.1360	0.1338	1.0	2
C29'	C	0.286(2)	0.0747(14)	0.0071(10)	1.0	2
H29C	H	0.1918	0.1207	-0.0066	1.0	2
H29D	H	0.3644	0.0812	-0.0299	1.0	2
C30'	C	0.213(2)	-0.0540(15)	-0.0134(10)	1.0	2
H30C	H	0.1383	-0.0613	0.0253	1.0	2
H30D	H	0.3072	-0.1010	-0.0027	1.0	2
C31'	C	0.112(3)	-0.1078(18)	-0.1032(10)	1.0	2
H31D	H	0.0677	-0.1929	-0.1127	1.0	2
H31E	H	0.0168	-0.0632	-0.1140	1.0	2
H31F	H	0.1858	-0.1028	-0.1420	1.0	2
