data_k15192x_config-1
loop_
 _symmetry_equiv_pos_as_xyz
'x, y, z'
'-x, -y, -z'

_cell_length_a	10.1804(6)
_cell_length_b	17.6978(12)
_cell_length_c	24.0642(16)
_cell_angle_alpha	94.496(2)
_cell_angle_beta	101.532(2)
_cell_angle_gamma	100.166(2)
loop_
 _atom_site_label
 _atom_site_type_symbol
 _atom_site_fract_x
 _atom_site_fract_y
 _atom_site_fract_z
 _atom_site_occupancy
 _atom_site_disorder_group
Si1A	Si	0.60147(18)	0.28257(10)	1.16898(7)	1.0	.
C1A	C	0.5131(4)	0.4449(2)	1.04006(14)	1.0	.
C2A	C	0.3922(10)	0.4498(4)	1.0111(3)	1.0	1
C3A	C	0.3677(11)	0.4997(4)	0.9687(3)	1.0	1
C4A	C	0.2264(8)	0.4927(4)	0.9464(3)	1.0	1
H4A	H	0.1904	0.5232	0.9185	1.0	1
C5A	C	0.1467(6)	0.4384(10)	0.9685(8)	1.0	1
S1A	S	0.24073(19)	0.39450(12)	1.01996(8)	1.0	1
C6A	C	-0.0009(5)	0.4158(4)	0.9543(3)	1.0	1
S2A	S	-0.0922(2)	0.46045(13)	0.90137(9)	1.0	1
C7A	C	-0.0828(9)	0.3644(3)	0.9760(3)	1.0	1
H7A	H	-0.0495	0.3352	1.0053	1.0	1
C8A	C	-0.2258(9)	0.3570(5)	0.9513(4)	1.0	1
C9A	C	-0.3371(7)	0.3100(5)	0.9636(3)	1.0	1
H9A	H	-0.3253	0.2757	0.9919	1.0	1
C10A	C	-0.4655(7)	0.3138(4)	0.9339(3)	1.0	1
S3A	S	-0.6202(2)	0.26075(14)	0.94200(11)	1.0	1
C11A	C	-0.7050(6)	0.3053(4)	0.8904(3)	1.0	1
C12A	C	-0.6313(7)	0.3571(4)	0.8666(3)	1.0	1
H12A	H	-0.6671	0.3858	0.8374	1.0	1
C13A	C	-0.4877(7)	0.3636(4)	0.8916(3)	1.0	1
C14A	C	-0.3766(8)	0.4115(4)	0.8788(4)	1.0	1
H14A	H	-0.3889	0.4457	0.8505	1.0	1
C15A	C	-0.2454(9)	0.4076(5)	0.9093(4)	1.0	1
F1A	F	-0.8420(6)	0.2837(5)	0.8782(4)	1.0	1
C16A	C	0.5303(5)	0.3895(3)	1.08000(19)	1.0	.
C17A	C	0.5523(5)	0.3440(3)	1.1137(2)	1.0	.
C18A	C	0.7825(6)	0.3284(4)	1.2045(2)	1.0	.
H18A	H	0.7855	0.3830	1.2182	1.0	.
H18B	H	0.8108	0.3020	1.2384	1.0	.
C19A	C	0.8840(6)	0.3261(4)	1.1675(3)	1.0	.
H19A	H	0.8503	0.3470	1.1315	1.0	.
H19B	H	0.8891	0.2715	1.1576	1.0	.
C20A	C	1.0253(7)	0.3705(4)	1.1939(3)	1.0	.
H20A	H	1.0574	0.3525	1.2313	1.0	.
H20B	H	1.0225	0.4260	1.2008	1.0	.
C21A	C	1.1259(7)	0.3609(4)	1.1564(3)	1.0	.
H21A	H	1.1394	0.3074	1.1541	1.0	.
H21B	H	1.2135	0.3959	1.1728	1.0	.
H21C	H	1.0898	0.3733	1.1180	1.0	.
C22A	C	0.4904(6)	0.2851(3)	1.2199(2)	1.0	.
H22A	H	0.3958	0.2605	1.1999	1.0	.
H22B	H	0.5196	0.2536	1.2506	1.0	.
C23A	C	0.4889(6)	0.3655(4)	1.2472(2)	1.0	.
H23A	H	0.5830	0.3900	1.2678	1.0	.
H23B	H	0.4606	0.3974	1.2166	1.0	.
C24A	C	0.3952(7)	0.3661(4)	1.2882(3)	1.0	.
H24A	H	0.4307	0.3407	1.3217	1.0	.
H24B	H	0.3036	0.3356	1.2693	1.0	.
C25A	C	0.3813(10)	0.4469(5)	1.3085(4)	1.0	.
H25A	H	0.4722	0.4786	1.3244	1.0	.
H25B	H	0.3273	0.4444	1.3380	1.0	.
H25C	H	0.3353	0.4699	1.2762	1.0	.
C26A	C	0.5806(8)	0.1810(4)	1.1343(3)	1.0	.
H26A	H	0.6477	0.1558	1.1579	1.0	.
H26B	H	0.4884	0.1528	1.1355	1.0	.
C27A	C	0.5967(10)	0.1707(5)	1.0758(4)	1.0	.
H27A	H	0.6860	0.2020	1.0739	1.0	.
H27B	H	0.5249	0.1923	1.0516	1.0	.
C28A	C	0.5896(11)	0.0884(5)	1.0495(5)	1.0	.
H28A	H	0.5110	0.0539	1.0587	1.0	.
H28B	H	0.5732	0.0870	1.0075	1.0	.
C29A	C	0.7120(12)	0.0593(6)	1.0694(5)	1.0	.
H29A	H	0.7922	0.0984	1.0680	1.0	.
H29B	H	0.7108	0.0121	1.0450	1.0	.
H29C	H	0.7163	0.0477	1.1088	1.0	.
Si1B	Si	-0.12660(18)	0.08987(10)	0.85749(6)	1.0	.
C1B	C	-0.1109(9)	0.1923(4)	0.6925(5)	1.0	1
C2B	C	0.0145(13)	0.2244(3)	0.6814(6)	1.0	1
S1B	S	0.1753(2)	0.23870(12)	0.72296(7)	1.0	1
C5B	C	0.2483(5)	0.2799(2)	0.67061(16)	1.0	1
C4B	C	0.1529(11)	0.2823(4)	0.6226(4)	1.0	1
H4B	H	0.1739	0.3026	0.5894	1.0	1
C3B	C	0.0183(12)	0.2510(4)	0.6280(5)	1.0	1
C30B	C	-0.104(1)	0.2452(4)	0.5843(5)	1.0	1
C31B	C	-0.2278(9)	0.2131(3)	0.5979(4)	1.0	1
S4B	S	-0.38782(17)	0.19881(11)	0.55512(8)	1.0	1
C34B	C	-0.4616(6)	0.1577(5)	0.6083(7)	1.0	1
C33B	C	-0.3685(7)	0.1553(4)	0.6553(3)	1.0	1
H33B	H	-0.3907	0.1348	0.6883	1.0	1
C32B	C	-0.2306(9)	0.1869(4)	0.6512(3)	1.0	1
C6B	C	0.3947(7)	0.3014(5)	0.6812(4)	1.0	1
S2B	S	0.4973(2)	0.29120(17)	0.74657(10)	1.0	1
C7B	C	0.4686(8)	0.3354(5)	0.6474(3)	1.0	1
H7B	H	0.4283	0.3461	0.6105	1.0	1
C8B	C	0.613(1)	0.3549(12)	0.6701(6)	1.0	1
C9B	C	0.7172(8)	0.3895(11)	0.6458(5)	1.0	1
H9B	H	0.6983	0.4027	0.6079	1.0	1
C10B	C	0.8494(8)	0.4044(12)	0.6781(5)	1.0	1
S3B	S	0.9954(3)	0.4497(2)	0.6578(2)	1.0	1
C11B	C	1.0926(8)	0.4401(17)	0.7214(7)	1.0	1
C12B	C	1.0269(9)	0.4082(8)	0.7582(4)	1.0	1
H12B	H	1.0697	0.4002	0.7955	1.0	1
C13B	C	0.8812(9)	0.3866(13)	0.7346(5)	1.0	1
C14B	C	0.7784(8)	0.3489(12)	0.7587(6)	1.0	1
H14B	H	0.7982	0.3345	0.7962	1.0	1
C15B	C	0.6442(9)	0.3328(13)	0.7255(6)	1.0	1
F1B	F	1.2271(8)	0.4681(16)	0.7290(8)	1.0	1
C16B	C	-0.0972(5)	0.1650(3)	0.7504(2)	1.0	.
C17B	C	-0.1042(6)	0.1383(3)	0.7945(2)	1.0	.
C18B	C	0.0268(8)	0.1285(5)	0.9147(3)	1.0	.
H18C	H	0.1089	0.1275	0.8987	1.0	.
H18D	H	0.0265	0.1832	0.9268	1.0	.
C19B	C	0.0388(10)	0.0865(6)	0.9658(4)	1.0	.
H19C	H	0.0328	0.0312	0.9531	1.0	.
H19D	H	-0.0408	0.0903	0.9829	1.0	.
C20B	C	0.1740(9)	0.1151(6)	1.0142(4)	1.0	.
H20C	H	0.1891	0.0740	1.0390	1.0	.
H20D	H	0.2543	0.1281	0.9969	1.0	.
C21B	C	0.1556(12)	0.1825(5)	1.0472(4)	1.0	.
H21D	H	0.1529	0.2251	1.0235	1.0	.
H21E	H	0.2319	0.1977	1.0805	1.0	.
H21F	H	0.0696	0.1707	1.0600	1.0	.
C22B	C	-0.1562(8)	-0.0141(4)	0.8342(3)	1.0	.
H22C	H	-0.1554	-0.0414	0.8686	1.0	.
H22D	H	-0.2496	-0.0294	0.8100	1.0	.
C23B	C	-0.0642(8)	-0.0429(4)	0.8033(3)	1.0	.
H23C	H	0.0290	-0.0276	0.8276	1.0	.
H23D	H	-0.0648	-0.0153	0.7691	1.0	.
C24B	C	-0.0865(10)	-0.1277(5)	0.7837(4)	1.0	.
H24C	H	-0.0774	-0.1552	0.8181	1.0	.
H24D	H	-0.1824	-0.1442	0.7621	1.0	.
C25B	C	-0.0039(13)	-0.1535(6)	0.7502(5)	1.0	.
H25D	H	-0.0231	-0.1346	0.7128	1.0	.
H25E	H	-0.0223	-0.2101	0.7453	1.0	.
H25F	H	0.0923	-0.1339	0.7689	1.0	.
C26B	C	-0.2798(5)	0.1154(3)	0.8797(2)	1.0	.
H26C	H	-0.2905	0.0907	0.9145	1.0	.
H26D	H	-0.2616	0.1720	0.8904	1.0	.
C27B	C	-0.4139(8)	0.0930(5)	0.8365(3)	1.0	.
H27C	H	-0.4009	0.1149	0.8010	1.0	.
H27D	H	-0.4343	0.0360	0.8277	1.0	.
C28B	C	-0.5329(10)	0.1160(6)	0.8514(4)	1.0	.
H28C	H	-0.5138	0.1730	0.8591	1.0	.
H28D	H	-0.5447	0.0953	0.8875	1.0	.
C29B	C	-0.6627(10)	0.0923(6)	0.8100(4)	1.0	.
H29D	H	-0.6545	0.1133	0.7741	1.0	.
H29E	H	-0.7344	0.1120	0.8250	1.0	.
H29F	H	-0.6864	0.0357	0.8032	1.0	.
C35B	C	-0.6063(6)	0.1305(3)	0.6032(3)	1.0	1
S5B	S	-0.7122(2)	0.14712(11)	0.54057(8)	1.0	1
C36B	C	-0.6774(9)	0.0928(3)	0.6368(3)	1.0	1
H36B	H	-0.6356	0.0792	0.6725	1.0	1
C37B	C	-0.8226(8)	0.0744(3)	0.6145(4)	1.0	1
C38B	C	-0.9255(6)	0.0360(3)	0.6380(3)	1.0	1
H38B	H	-0.9045	0.0173	0.6740	1.0	1
C39B	C	-1.0588(6)	0.0255(3)	0.6079(3)	1.0	1
S6B	S	-1.20331(19)	-0.02063(12)	0.62974(11)	1.0	1
C40B	C	-1.3027(5)	-0.0036(3)	0.5679(3)	1.0	1
C41B	C	-1.2389(6)	0.0335(3)	0.5326(3)	1.0	1
H41B	H	-1.2835	0.0463	0.4970	1.0	1
C42B	C	-1.0935(6)	0.0524(3)	0.5545(3)	1.0	1
C43B	C	-0.9925(6)	0.0910(3)	0.5302(3)	1.0	1
H43B	H	-1.0143	0.1096	0.4942	1.0	1
C44B	C	-0.8568(8)	0.1014(3)	0.5609(4)	1.0	1
F2B	F	-1.4385(5)	-0.0300(3)	0.5594(3)	1.0	1
C45B	C	-0.1166(5)	0.2645(3)	0.5301(2)	1.0	.
C46B	C	-0.1178(6)	0.2803(3)	0.4821(2)	1.0	.
Si2B	Si	-0.1173(6)	0.3072(3)	0.4102(4)	1.0	1
C47B	C	0.0573(11)	0.3333(8)	0.4020(5)	1.0	1
H47A	H	0.0568	0.3420	0.3618	1.0	1
H47B	H	0.1020	0.3824	0.4264	1.0	1
C48B	C	0.1461(13)	0.2675(12)	0.4189(6)	1.0	1
H48A	H	0.1627	0.2724	0.4611	1.0	1
H48B	H	0.0795	0.2184	0.4056	1.0	1
C49B	C	0.2727(15)	0.2502(12)	0.4069(7)	1.0	1
H49A	H	0.2788	0.2649	0.3685	1.0	1
H49B	H	0.2655	0.1935	0.4048	1.0	1
C50B	C	0.4036(14)	0.2869(13)	0.4470(6)	1.0	1
H50A	H	0.4798	0.2700	0.4336	1.0	1
H50B	H	0.4154	0.3432	0.4487	1.0	1
H50C	H	0.4020	0.2715	0.4852	1.0	1
C51B	C	-0.2210(11)	0.3844(6)	0.3976(4)	1.0	1
H51A	H	-0.2119	0.4044	0.3610	1.0	1
H51B	H	-0.3187	0.3619	0.3948	1.0	1
C52B	C	-0.1723(13)	0.4531(8)	0.4476(5)	1.0	1
H52A	H	-0.1681	0.4320	0.4847	1.0	1
H52B	H	-0.0792	0.4804	0.4468	1.0	1
C53B	C	-0.269(3)	0.5106(12)	0.4426(11)	1.0	1
H53A	H	-0.2135	0.5626	0.4574	1.0	1
H53B	H	-0.3066	0.5114	0.4014	1.0	1
C54B	C	-0.378(2)	0.4998(12)	0.469(1)	1.0	1
H54A	H	-0.4294	0.5410	0.4618	1.0	1
H54B	H	-0.4371	0.4496	0.4538	1.0	1
H54C	H	-0.3435	0.5011	0.5102	1.0	1
C55B	C	-0.1882(13)	0.2181(7)	0.3582(5)	1.0	1
H55A	H	-0.1844	0.2317	0.3193	1.0	1
H55B	H	-0.1286	0.1801	0.3669	1.0	1
C56B	C	-0.3276(14)	0.1816(8)	0.3581(7)	1.0	1
H56A	H	-0.3903	0.2183	0.3503	1.0	1
H56B	H	-0.3338	0.1624	0.3953	1.0	1
C57B	C	-0.3642(12)	0.1103(7)	0.3070(5)	1.0	1
H57A	H	-0.3570	0.1289	0.2698	1.0	1
H57B	H	-0.3042	0.0724	0.3152	1.0	1
C58B	C	-0.5052(12)	0.0775(8)	0.3081(6)	1.0	1
H58A	H	-0.5399	0.0331	0.2786	1.0	1
H58B	H	-0.5092	0.0607	0.3457	1.0	1
H58C	H	-0.5616	0.1167	0.3007	1.0	1
