data_x08028_config-1
loop_
 _symmetry_equiv_pos_as_xyz
'x, y, z'
'-x, -y, -z'

_cell_length_a	7.5429(4)
_cell_length_b	14.1476(7)
_cell_length_c	17.5795(8)
_cell_angle_alpha	70.734(2)
_cell_angle_beta	81.735(2)
_cell_angle_gamma	83.198(2)
loop_
 _atom_site_label
 _atom_site_type_symbol
 _atom_site_fract_x
 _atom_site_fract_y
 _atom_site_fract_z
 _atom_site_occupancy
 _atom_site_disorder_group
Si1	Si	0.24986(5)	0.60886(3)	0.81108(2)	1.0	.
Si2	Si	1.14578(5)	0.85933(3)	0.18769(2)	1.0	.
F1	F	0.49172(12)	0.98345(7)	0.67403(5)	1.0	.
F2	F	0.59185(13)	1.17414(7)	0.61313(6)	1.0	.
F3	F	0.80458(13)	1.23340(6)	0.47349(6)	1.0	.
F4	F	0.92010(12)	1.10568(7)	0.38784(5)	1.0	.
C1	C	0.61917(19)	0.67444(11)	0.58116(9)	1.0	.
C2	C	0.66736(19)	0.77529(11)	0.55045(9)	1.0	.
C3	C	0.60896(19)	0.84364(11)	0.59237(9)	1.0	.
H3	H	0.5345	0.8224	0.6424	1.0	.
C4	C	0.65700(19)	0.94125(11)	0.56272(9)	1.0	.
C5	C	0.5989(2)	1.01227(12)	0.60384(9)	1.0	.
C6	C	0.6470(2)	1.10713(12)	0.57433(9)	1.0	.
C7	C	0.7589(2)	1.13870(11)	0.50010(9)	1.0	.
C8	C	0.8154(2)	1.07450(11)	0.45841(9)	1.0	.
C9	C	0.76836(19)	0.97380(11)	0.48688(9)	1.0	.
C10	C	0.82480(19)	0.90703(11)	0.44462(9)	1.0	.
H10	H	0.8970	0.9291	0.3940	1.0	.
C11	C	0.77814(19)	0.80774(11)	0.47460(9)	1.0	.
C12	C	0.83605(19)	0.73883(11)	0.43117(8)	1.0	.
C13	C	0.79270(19)	0.63864(11)	0.46358(9)	1.0	.
C14	C	0.8520(2)	0.56746(12)	0.42246(9)	1.0	.
H14	H	0.9199	0.5885	0.3707	1.0	.
C15	C	0.8138(2)	0.47070(12)	0.45554(9)	1.0	.
H15	H	0.8554	0.4244	0.4270	1.0	.
C16	C	0.7118(2)	0.43718(12)	0.53279(9)	1.0	.
H16	H	0.6879	0.3685	0.5560	1.0	.
C17	C	0.6489(2)	0.50256(11)	0.57312(9)	1.0	.
H17	H	0.5793	0.4794	0.6243	1.0	.
C18	C	0.68491(19)	0.60570(11)	0.54044(9)	1.0	.
C19	C	0.5006(2)	0.64583(11)	0.65445(9)	1.0	.
C20	C	0.3969(2)	0.62884(11)	0.71532(9)	1.0	.
C21	C	0.0189(2)	0.58860(12)	0.79454(9)	1.0	.
H21	H	-0.0587	0.5766	0.8475	1.0	.
C22	C	-0.0649(2)	0.68034(13)	0.73320(11)	1.0	.
H22A	H	0.0100	0.6946	0.6809	1.0	.
H22B	H	-0.0731	0.7383	0.7526	1.0	.
H22C	H	-0.1855	0.6671	0.7267	1.0	.
C23	C	0.0208(3)	0.49621(13)	0.76787(11)	1.0	.
H23A	H	-0.0987	0.4915	0.7543	1.0	.
H23B	H	0.0535	0.4359	0.8120	1.0	.
H23C	H	0.1089	0.5019	0.7201	1.0	.
C24	C	0.3471(3)	0.4860(2)	0.87942(15)	1.0	1
H24	H	0.3493	0.4356	0.8506	1.0	1
C25	C	0.2318(5)	0.4458(3)	0.9604(2)	1.0	1
H25A	H	0.2872	0.3812	0.9921	1.0	1
H25B	H	0.1114	0.4366	0.9506	1.0	1
H25C	H	0.2230	0.4938	0.9905	1.0	1
C26	C	0.5409(4)	0.4915(3)	0.8915(2)	1.0	1
H26A	H	0.5453	0.5391	0.9208	1.0	1
H26B	H	0.6125	0.5140	0.8386	1.0	1
H26C	H	0.5896	0.4249	0.9229	1.0	1
C27	C	0.2455(2)	0.72772(13)	0.83739(10)	1.0	.
H27	H	0.1978	0.7829	0.7911	1.0	.
C28	C	0.1153(3)	0.72802(14)	0.91217(11)	1.0	.
H28A	H	0.1554	0.6747	0.9596	1.0	.
H28B	H	-0.0051	0.7164	0.9040	1.0	.
H28C	H	0.1119	0.7932	0.9209	1.0	.
C29	C	0.4295(3)	0.75667(15)	0.84492(11)	1.0	.
H29A	H	0.4188	0.8258	0.8464	1.0	.
H29B	H	0.5138	0.7518	0.7982	1.0	.
H29C	H	0.4738	0.7111	0.8949	1.0	.
C30	C	0.9395(2)	0.77376(11)	0.35409(9)	1.0	.
C31	C	1.0239(2)	0.80751(11)	0.28907(9)	1.0	.
C32	C	0.9778(2)	0.88635(12)	0.11219(9)	1.0	.
H32	H	1.0403	0.9207	0.0575	1.0	.
C33	C	0.8185(2)	0.95670(13)	0.12861(11)	1.0	.
H33A	H	0.7351	0.9687	0.0879	1.0	.
H33B	H	0.8614	1.0206	0.1258	1.0	.
H33C	H	0.7565	0.9260	0.1827	1.0	.
C34	C	0.9148(2)	0.78906(13)	0.10930(10)	1.0	.
H34A	H	0.8568	0.7522	0.1628	1.0	.
H34B	H	1.0183	0.7477	0.0940	1.0	.
H34C	H	0.8288	0.8049	0.0692	1.0	.
C35	C	1.3210(2)	0.75929(12)	0.17238(9)	1.0	.
H35	H	1.2566	0.6989	0.1786	1.0	.
C36	C	1.4208(2)	0.79005(13)	0.08711(10)	1.0	.
H36A	H	1.4870	0.8488	0.0789	1.0	.
H36B	H	1.3342	0.8067	0.0472	1.0	.
H36C	H	1.5052	0.7344	0.0804	1.0	.
C37	C	1.4513(2)	0.72796(13)	0.23699(10)	1.0	.
H37A	H	1.5334	0.6716	0.2300	1.0	.
H37B	H	1.3835	0.7075	0.2910	1.0	.
H37C	H	1.5206	0.7847	0.2314	1.0	.
C38	C	1.2509(2)	0.97625(11)	0.18230(9)	1.0	.
H38	H	1.3705	0.9541	0.2033	1.0	.
C39	C	1.1441(2)	1.03515(12)	0.23492(10)	1.0	.
H39A	H	1.2072	1.0940	0.2299	1.0	.
H39B	H	1.1321	0.9922	0.2917	1.0	.
H39C	H	1.0245	1.0571	0.2170	1.0	.
C40	C	1.2862(2)	1.04590(12)	0.09490(10)	1.0	.
H40A	H	1.1717	1.0696	0.0721	1.0	.
H40B	H	1.3622	1.0091	0.0623	1.0	.
H40C	H	1.3473	1.1035	0.0944	1.0	.
