data_x09077t_config-2
loop_
 _symmetry_equiv_pos_as_xyz
'x, y, z'
'-x+1/2, y+1/2, -z+1/2'
'-x, -y, -z'
'x-1/2, -y-1/2, z-1/2'

_cell_length_a	17.3204(10)
_cell_length_b	9.1990(5)
_cell_length_c	34.233(2)
_cell_angle_alpha	90.00
_cell_angle_beta	91.259(4)
_cell_angle_gamma	90.00
loop_
 _atom_site_label
 _atom_site_type_symbol
 _atom_site_fract_x
 _atom_site_fract_y
 _atom_site_fract_z
 _atom_site_occupancy
 _atom_site_disorder_group
Si1	Si	0.23750(10)	0.61659(18)	0.13910(5)	1.0	.
C1	C	0.2531(4)	0.8804(7)	0.02979(17)	1.0	.
C2	C	0.1924(4)	0.9768(7)	0.01953(17)	1.0	.
C3	C	0.1260(4)	0.9882(7)	0.04213(18)	1.0	.
C4A	C	0.0666(4)	1.0848(7)	0.03300(18)	1.0	2
C5A	C	-0.004(5)	1.101(13)	0.053(3)	1.0	2
H5A	H	-0.0163	1.0342	0.0728	1.0	2
C6A	C	-0.055(3)	1.212(8)	0.0430(19)	1.0	2
C17A	C	-0.131(3)	1.215(8)	0.059(2)	1.0	2
H17A	H	-0.1474	1.1422	0.0769	1.0	2
C18A	C	-0.180(2)	1.325(4)	0.0484(11)	1.0	2
H18A	H	-0.2243	1.3401	0.0635	1.0	2
C19A	C	-0.168(2)	1.419(4)	0.0159(11)	1.0	2
H19A	H	-0.2045	1.4917	0.0089	1.0	2
C20A	C	-0.104(3)	1.400(7)	-0.0043(18)	1.0	2
H20A	H	-0.0957	1.4602	-0.0263	1.0	2
C7A	C	-0.048(4)	1.292(10)	0.006(2)	1.0	2
C8A	C	0.018(3)	1.271(9)	-0.0146(17)	1.0	2
H8A	H	0.0242	1.3191	-0.0389	1.0	2
C9A	C	0.0749(4)	1.1791(7)	-0.00056(19)	1.0	2
C10	C	0.1396(4)	1.1691(7)	-0.02309(19)	1.0	.
C11	C	0.1999(4)	1.0706(7)	-0.01453(17)	1.0	.
C12	C	0.2666(4)	1.0620(7)	-0.03678(17)	1.0	.
C13	C	0.3298(4)	0.9709(7)	-0.02525(17)	1.0	.
C14	C	0.3994(4)	0.9710(7)	-0.04549(18)	1.0	.
C15B	C	0.4611(4)	0.8791(7)	-0.03427(17)	1.0	2
C16B	C	0.537(3)	0.872(10)	-0.050(2)	1.0	2
C17B	C	0.590(2)	0.769(6)	-0.0403(15)	1.0	2
C22B	C	0.582(3)	0.688(12)	-0.005(2)	1.0	2
C23B	C	0.515(5)	0.690(19)	0.012(4)	1.0	2
F1B	F	0.5505(11)	0.944(2)	-0.0835(5)	1.0	2
F2B	F	0.6619(17)	0.761(4)	-0.0562(11)	1.0	2
F3B	F	0.640(2)	0.599(6)	0.0058(15)	1.0	2
F4B	F	0.5123(12)	0.608(2)	0.0456(5)	1.0	2
C24B	C	0.4521(4)	0.7813(7)	-0.00167(18)	1.0	2
C25	C	0.3830(4)	0.7833(8)	0.0185(2)	1.0	.
C26	C	0.3219(4)	0.8756(7)	0.00801(17)	1.0	.
C27	C	0.2468(4)	0.7908(7)	0.06356(16)	1.0	.
C28	C	0.2428(4)	0.7179(7)	0.09297(18)	1.0	.
C29	C	0.3252(4)	0.4938(7)	0.14319(18)	1.0	.
H29	H	0.3113	0.4031	0.1285	1.0	.
C30	C	0.3977(4)	0.5538(9)	0.1241(2)	1.0	.
H30A	H	0.4133	0.6450	0.1375	1.0	.
H30B	H	0.3855	0.5774	0.0965	1.0	.
C31	C	0.4655(4)	0.4467(9)	0.1259(2)	1.0	.
H31A	H	0.5118	0.4932	0.1150	1.0	.
H31B	H	0.4527	0.3602	0.1098	1.0	.
C32	C	0.4830(4)	0.3993(8)	0.1681(2)	1.0	.
H32A	H	0.5246	0.3256	0.1685	1.0	.
H32B	H	0.5011	0.4841	0.1836	1.0	.
C33	C	0.4114(4)	0.3363(8)	0.1862(2)	1.0	.
H33A	H	0.4232	0.3087	0.2136	1.0	.
H33B	H	0.3956	0.2475	0.1718	1.0	.
C34	C	0.3451(4)	0.4461(8)	0.18505(19)	1.0	.
H34A	H	0.3598	0.5323	0.2008	1.0	.
H34B	H	0.2990	0.4018	0.1968	1.0	.
C35	C	0.1475(4)	0.5000(7)	0.13609(18)	1.0	.
H35	H	0.1597	0.4199	0.1175	1.0	.
C36	C	0.1268(4)	0.4247(7)	0.17417(19)	1.0	.
H36A	H	0.1726	0.3715	0.1845	1.0	.
H36B	H	0.1127	0.4990	0.1937	1.0	.
C37	C	0.0599(4)	0.3187(8)	0.1685(2)	1.0	.
H37A	H	0.0760	0.2386	0.1512	1.0	.
H37B	H	0.0469	0.2761	0.1941	1.0	.
C38	C	-0.0101(4)	0.3903(8)	0.1512(2)	1.0	.
H38A	H	-0.0304	0.4615	0.1701	1.0	.
H38B	H	-0.0505	0.3161	0.1462	1.0	.
C39	C	0.0078(5)	0.4678(9)	0.1131(2)	1.0	.
H39A	H	-0.0386	0.5210	0.1036	1.0	.
H39B	H	0.0214	0.3951	0.0931	1.0	.
C40	C	0.0747(4)	0.5745(9)	0.1189(2)	1.0	.
H40A	H	0.0588	0.6534	0.1367	1.0	.
H40B	H	0.0871	0.6189	0.0934	1.0	.
C41	C	0.2363(3)	0.7579(6)	0.17851(18)	1.0	.
H41	H	0.2329	0.7059	0.2041	1.0	.
C42	C	0.1660(4)	0.8596(8)	0.1749(2)	1.0	.
H42A	H	0.1647	0.9041	0.1486	1.0	.
H42B	H	0.1182	0.8017	0.1776	1.0	.
C43	C	0.1674(4)	0.9804(8)	0.2057(2)	1.0	.
H43A	H	0.1230	1.0462	0.2007	1.0	.
H43B	H	0.1614	0.9367	0.2318	1.0	.
C44	C	0.2411(4)	1.0679(7)	0.2054(2)	1.0	.
H44A	H	0.2404	1.1412	0.2265	1.0	.
H44B	H	0.2448	1.1200	0.1802	1.0	.
C45	C	0.3105(4)	0.9698(7)	0.2111(2)	1.0	.
H45A	H	0.3090	0.9246	0.2373	1.0	.
H45B	H	0.3583	1.0284	0.2097	1.0	.
C46	C	0.3119(4)	0.8499(7)	0.17976(19)	1.0	.
H46A	H	0.3564	0.7848	0.1852	1.0	.
H46B	H	0.3192	0.8950	0.1539	1.0	.
C47	C	0.2705(4)	1.1433(7)	-0.07219(17)	1.0	.
C48	C	0.2712(4)	1.2025(7)	-0.10394(19)	1.0	.
Si2	Si	0.26521(10)	1.28408(17)	-0.15309(5)	1.0	.
C49	C	0.3384(4)	1.1870(7)	-0.18398(18)	1.0	.
H49	H	0.3146	1.0928	-0.1924	1.0	.
C50	C	0.4127(4)	1.1505(7)	-0.16161(19)	1.0	.
H50A	H	0.4003	1.0910	-0.1385	1.0	.
H50B	H	0.4372	1.2417	-0.1522	1.0	.
C51	C	0.4697(4)	1.0677(8)	-0.1867(2)	1.0	.
H51A	H	0.5185	1.0529	-0.1716	1.0	.
H51B	H	0.4481	0.9710	-0.1933	1.0	.
C52	C	0.4864(4)	1.1502(9)	-0.2241(2)	1.0	.
H52A	H	0.5139	1.2415	-0.2176	1.0	.
H52B	H	0.5204	1.0906	-0.2406	1.0	.
C53	C	0.4130(4)	1.1853(8)	-0.24673(19)	1.0	.
H53A	H	0.3880	1.0939	-0.2555	1.0	.
H53B	H	0.4256	1.2430	-0.2702	1.0	.
C54	C	0.3570(3)	1.2719(7)	-0.22123(17)	1.0	.
H54A	H	0.3806	1.3665	-0.2140	1.0	.
H54B	H	0.3087	1.2913	-0.2363	1.0	.
C55'	C	0.2896(4)	1.4824(7)	-0.14674(19)	1.0	2
H55'	H	0.2540	1.5017	-0.1247	1.0	2
C56'	C	0.246(5)	1.575(3)	-0.178(2)	1.0	2
H56C	H	0.2704	1.5605	-0.2033	1.0	2
H56D	H	0.1921	1.5374	-0.1804	1.0	2
C57'	C	0.242(3)	1.737(4)	-0.1699(16)	1.0	2
H57C	H	0.2265	1.7881	-0.1944	1.0	2
H57D	H	0.2010	1.7558	-0.1506	1.0	2
C58'	C	0.317(3)	1.799(4)	-0.1546(14)	1.0	2
H58C	H	0.3098	1.9021	-0.1472	1.0	2
H58D	H	0.3559	1.7955	-0.1755	1.0	2
C59'	C	0.347(3)	1.714(4)	-0.1194(12)	1.0	2
H59C	H	0.3966	1.7567	-0.1100	1.0	2
H59D	H	0.3096	1.7223	-0.0980	1.0	2
C60'	C	0.359(2)	1.557(4)	-0.1293(15)	1.0	2
H60C	H	0.4016	1.5497	-0.1478	1.0	2
H60D	H	0.3748	1.5048	-0.1052	1.0	2
C61	C	0.1627(4)	1.2483(6)	-0.17196(18)	1.0	.
H61	H	0.1281	1.3195	-0.1589	1.0	.
C62	C	0.1347(4)	1.0946(7)	-0.1611(2)	1.0	.
H62A	H	0.1700	1.0215	-0.1721	1.0	.
H62B	H	0.1363	1.0839	-0.1323	1.0	.
C63	C	0.0535(4)	1.0664(8)	-0.1762(2)	1.0	.
H63A	H	0.0395	0.9644	-0.1705	1.0	.
H63B	H	0.0174	1.1302	-0.1622	1.0	.
C64	C	0.0440(4)	1.0924(8)	-0.2192(2)	1.0	.
H64A	H	-0.0110	1.0794	-0.2270	1.0	.
H64B	H	0.0747	1.0200	-0.2336	1.0	.
C65	C	0.0698(4)	1.2444(7)	-0.2303(2)	1.0	.
H65A	H	0.0353	1.3171	-0.2184	1.0	.
H65B	H	0.0664	1.2560	-0.2590	1.0	.
C66	C	0.1527(4)	1.2704(7)	-0.21609(18)	1.0	.
H66A	H	0.1680	1.3709	-0.2228	1.0	.
H66B	H	0.1875	1.2030	-0.2298	1.0	.
