data_x10018_config-1
loop_
 _symmetry_equiv_pos_as_xyz
'x, y, z'
'-x, -y, -z'

_cell_length_a	7.9248(2)
_cell_length_b	8.8481(2)
_cell_length_c	17.7695(4)
_cell_angle_alpha	101.225(1)
_cell_angle_beta	99.042(2)
_cell_angle_gamma	97.371(1)
loop_
 _atom_site_label
 _atom_site_type_symbol
 _atom_site_fract_x
 _atom_site_fract_y
 _atom_site_fract_z
 _atom_site_occupancy
 _atom_site_disorder_group
Si1	Si	0.49314(12)	0.26408(10)	0.16665(5)	1.0	.
C1	C	0.4827(3)	0.4462(3)	0.41806(14)	1.0	.
C2	C	0.4265(3)	0.5879(3)	0.44724(14)	1.0	.
C3	C	0.3520(3)	0.6770(3)	0.39773(15)	1.0	.
H3	H	0.3387	0.6408	0.3428	1.0	.
C4	C	0.2969(3)	0.8165(3)	0.42615(16)	1.0	.
C5	C	0.2185(3)	0.9047(3)	0.37543(17)	1.0	.
H5	H	0.2012	0.8682	0.3204	1.0	1
C6	C	0.1687(3)	1.0417(3)	0.40611(17)	1.0	1
S7	S	0.0687(4)	1.1608(3)	0.34990(13)	1.0	1
C8	C	0.075(4)	1.2932(18)	0.4372(10)	1.0	1
F1'	F	-0.0015(17)	1.4181(13)	0.4307(5)	1.0	1
C9	C	0.1323(15)	1.2486(11)	0.5038(7)	1.0	1
H9	H	0.1322	1.3079	0.5545	1.0	1
C10	C	0.1943(3)	1.1001(3)	0.48939(17)	1.0	1
C11	C	0.2670(3)	1.0181(3)	0.53965(16)	1.0	.
H11	H	0.2830	1.0571	0.5944	1.0	1
C12	C	0.3192(3)	0.8732(3)	0.50958(15)	1.0	.
C13	C	0.3915(3)	0.7851(3)	0.55903(14)	1.0	.
H13	H	0.4053	0.8224	0.6139	1.0	.
C14	C	0.4449(3)	0.6428(3)	0.53076(14)	1.0	.
C15	C	0.4715(3)	0.3929(3)	0.33586(16)	1.0	.
C16	C	0.4689(4)	0.3458(3)	0.26715(17)	1.0	.
C17	C	0.4975(10)	0.0530(10)	0.1591(5)	1.0	1
H17	H	0.5038	0.0051	0.1040	1.0	1
C18	C	0.6573(11)	0.0246(8)	0.2132(4)	1.0	1
H18A	H	0.7613	0.0651	0.1942	1.0	1
H18B	H	0.6623	0.0896	0.2658	1.0	1
C19	C	0.6726(18)	-0.1379(12)	0.2225(7)	1.0	1
H19A	H	0.7805	-0.1362	0.2584	1.0	1
H19B	H	0.6735	-0.2043	0.1715	1.0	1
H19C	H	0.5739	-0.1796	0.2436	1.0	1
C20	C	0.3254(12)	-0.0230(10)	0.1773(6)	1.0	1
H20A	H	0.2276	-0.0036	0.1414	1.0	1
H20B	H	0.3168	0.0223	0.2312	1.0	1
H20C	H	0.3232	-0.1359	0.1708	1.0	1
C21	C	0.7003(11)	0.3725(12)	0.1464(5)	1.0	1
H21	H	0.6754	0.4757	0.1366	1.0	1
C22	C	0.8509(12)	0.4055(13)	0.2193(5)	1.0	1
H22A	H	0.8221	0.3400	0.2562	1.0	1
H22B	H	0.9597	0.3810	0.2028	1.0	1
C23	C	0.8713(15)	0.5708(14)	0.2565(7)	1.0	1
H23A	H	0.9638	0.5952	0.3028	1.0	1
H23B	H	0.7625	0.5938	0.2722	1.0	1
H23C	H	0.9012	0.6344	0.2197	1.0	1
C24	C	0.7608(14)	0.2878(14)	0.0749(5)	1.0	1
H24A	H	0.6676	0.2687	0.0291	1.0	1
H24B	H	0.7912	0.1879	0.0837	1.0	1
H24C	H	0.8626	0.3522	0.0658	1.0	1
C25	C	0.3128(6)	0.3124(6)	0.0972(2)	1.0	1
H25	H	0.2000	0.2669	0.1087	1.0	1
C26	C	0.3136(15)	0.2503(12)	0.0096(4)	1.0	1
H26A	H	0.4142	0.3083	-0.0051	1.0	1
H26B	H	0.3260	0.1386	0.0006	1.0	1
C27	C	0.1463(17)	0.2685(17)	-0.0422(6)	1.0	1
H27A	H	0.1484	0.2239	-0.0969	1.0	1
H27B	H	0.1375	0.3795	-0.0358	1.0	1
H27C	H	0.0463	0.2136	-0.0267	1.0	1
C28	C	0.3257(19)	0.4894(11)	0.1141(6)	1.0	1
H28A	H	0.3228	0.5284	0.1694	1.0	1
H28B	H	0.2280	0.5176	0.0816	1.0	1
H28C	H	0.4347	0.5362	0.1023	1.0	1
