data_x13034_config-2
loop_
 _symmetry_equiv_pos_as_xyz
'x, y, z'
'-x, -y, -z'

_cell_length_a	8.9483(4)
_cell_length_b	16.2714(8)
_cell_length_c	17.4406(9)
_cell_angle_alpha	102.541(4)
_cell_angle_beta	92.710(4)
_cell_angle_gamma	100.739(3)
loop_
 _atom_site_label
 _atom_site_type_symbol
 _atom_site_fract_x
 _atom_site_fract_y
 _atom_site_fract_z
 _atom_site_occupancy
 _atom_site_disorder_group
Si1	Si	0.5986(2)	0.81319(13)	0.49873(13)	1.0	.
Si2	Si	0.4540(2)	0.17719(13)	0.00685(13)	1.0	.
C1	C	0.5453(9)	0.5673(5)	0.3161(5)	1.0	.
C2	C	0.6582(8)	0.5168(5)	0.3057(4)	1.0	.
C3	C	0.7885(9)	0.5352(5)	0.3575(5)	1.0	.
H3	H	0.8019	0.5829	0.4014	1.0	.
C4	C	0.9016(9)	0.4850(5)	0.3470(5)	1.0	.
C5	C	1.0364(9)	0.5040(5)	0.4009(5)	1.0	.
C6'	C	1.1450(8)	0.4547(5)	0.3867(5)	1.0	2
C7'	C	1.282(3)	0.457(2)	0.4308(18)	1.0	2
H7'	H	1.3104	0.4941	0.4816	1.0	2
F1'	F	1.499(2)	0.3894(17)	0.4248(11)	1.0	2
C8'	C	1.369(2)	0.4061(15)	0.3982(14)	1.0	2
S9'	S	1.2797(8)	0.3313(4)	0.3107(4)	1.0	2
C10'	C	1.1300(9)	0.3863(5)	0.3192(5)	1.0	2
C11	C	1.0034(9)	0.3673(5)	0.2672(5)	1.0	.
C12	C	0.8836(9)	0.4143(5)	0.2803(5)	1.0	.
C13	C	0.7533(9)	0.3959(5)	0.2273(5)	1.0	.
H13	H	0.7421	0.3493	0.1824	1.0	.
C14	C	0.6392(9)	0.4442(5)	0.2385(5)	1.0	.
C15	C	0.5062(9)	0.4244(5)	0.1858(5)	1.0	.
C16	C	0.3924(9)	0.4751(5)	0.1954(5)	1.0	.
C17	C	0.2602(9)	0.4565(5)	0.1437(5)	1.0	.
H17	H	0.2480	0.4092	0.0994	1.0	.
C18	C	0.1456(9)	0.5040(5)	0.1539(5)	1.0	.
C19	C	0.0144(9)	0.4849(5)	0.0992(5)	1.0	.
C20'	C	-0.0962(8)	0.5324(5)	0.1126(5)	1.0	2
C21'	C	-0.239(4)	0.523(3)	0.063(3)	1.0	2
H21'	H	-0.2714	0.4813	0.0155	1.0	2
F2'	F	-0.4522(9)	0.5933(6)	0.0665(6)	1.0	2
C22'	C	-0.3171(19)	0.5816(13)	0.0953(12)	1.0	2
S23'	S	-0.2325(6)	0.6567(3)	0.1823(3)	1.0	2
C24'	C	-0.0809(9)	0.6021(5)	0.1804(5)	1.0	2
C25	C	0.0461(9)	0.6225(5)	0.2322(5)	1.0	.
C26	C	0.1636(9)	0.5749(5)	0.2224(5)	1.0	.
C27	C	0.2950(9)	0.5946(5)	0.2728(5)	1.0	.
H27	H	0.3075	0.6429	0.3162	1.0	.
C28	C	0.4107(9)	0.5473(5)	0.2636(5)	1.0	.
C29	C	0.5667(9)	0.6424(5)	0.3783(5)	1.0	.
C30	C	0.5835(9)	0.7079(6)	0.4274(5)	1.0	.
C31	C	0.6082(10)	0.8974(5)	0.4380(6)	1.0	.
H31A	H	0.5027	0.9044	0.4261	1.0	.
H31B	H	0.6646	0.9528	0.4713	1.0	.
C32	C	0.6808(11)	0.8814(6)	0.3618(6)	1.0	.
H32	H	0.6172	0.8278	0.3274	1.0	.
C33	C	0.8397(11)	0.8662(6)	0.3690(6)	1.0	.
H33A	H	0.9047	0.9156	0.4056	1.0	.
H33B	H	0.8797	0.8587	0.3171	1.0	.
H33C	H	0.8392	0.8143	0.3889	1.0	.
C34	C	0.6750(12)	0.9547(6)	0.3182(6)	1.0	.
H34A	H	0.7359	1.0087	0.3501	1.0	.
H34B	H	0.5689	0.9608	0.3100	1.0	.
H34C	H	0.7165	0.9407	0.2671	1.0	.
C35	C	0.4246(9)	0.8040(5)	0.5551(5)	1.0	.
H35A	H	0.4489	0.7814	0.6016	1.0	.
H35B	H	0.4067	0.8628	0.5753	1.0	.
C36	C	0.2745(9)	0.7482(5)	0.5121(5)	1.0	.
H36	H	0.2946	0.6909	0.4854	1.0	.
C37	C	0.2093(12)	0.7877(7)	0.4501(7)	1.0	.
H37A	H	0.1130	0.7504	0.4246	1.0	.
H37B	H	0.2822	0.7937	0.4105	1.0	.
H37C	H	0.1906	0.8444	0.4752	1.0	.
C38	C	0.1569(10)	0.7346(6)	0.5722(6)	1.0	.
H38A	H	0.1327	0.7899	0.5973	1.0	.
H38B	H	0.1996	0.7096	0.6125	1.0	.
H38C	H	0.0636	0.6955	0.5450	1.0	.
C39	C	0.7767(9)	0.8317(5)	0.5679(5)	1.0	.
H39A	H	0.7955	0.7751	0.5730	1.0	.
H39B	H	0.8640	0.8591	0.5431	1.0	.
C40	C	0.7751(9)	0.8866(5)	0.6500(5)	1.0	.
H40	H	0.6858	0.8592	0.6744	1.0	.
C41	C	0.7569(11)	0.9777(6)	0.6493(6)	1.0	.
H41A	H	0.7559	1.0103	0.7035	1.0	.
H41B	H	0.6608	0.9756	0.6189	1.0	.
H41C	H	0.8425	1.0059	0.6249	1.0	.
C42	C	0.9194(11)	0.8909(7)	0.7023(6)	1.0	.
H42A	H	1.0069	0.9253	0.6843	1.0	.
H42B	H	0.9371	0.8327	0.6991	1.0	.
H42C	H	0.9068	0.9176	0.7570	1.0	.
C43	C	0.4839(8)	0.3501(5)	0.1220(5)	1.0	.
C44	C	0.4671(9)	0.2861(5)	0.0725(5)	1.0	.
C45	C	0.2528(9)	0.1142(5)	-0.0043(5)	1.0	.
H45A	H	0.2556	0.0523	-0.0207	1.0	.
H45B	H	0.2125	0.1237	0.0481	1.0	.
C46	C	0.1398(10)	0.1347(6)	-0.0631(6)	1.0	.
H46	H	0.1884	0.1329	-0.1137	1.0	.
C47	C	0.1078(11)	0.2225(6)	-0.0361(7)	1.0	.
H47A	H	0.0640	0.2272	0.0148	1.0	.
H47B	H	0.0352	0.2328	-0.0751	1.0	.
H47C	H	0.2030	0.2652	-0.0302	1.0	.
C48	C	-0.0095(10)	0.0670(6)	-0.0805(6)	1.0	.
H48A	H	-0.0679	0.0733	-0.0342	1.0	.
H48B	H	0.0141	0.0094	-0.0930	1.0	.
H48C	H	-0.0700	0.0752	-0.1256	1.0	.
C49	C	0.5083(9)	0.1836(5)	-0.0958(5)	1.0	.
H49A	H	0.4679	0.1267	-0.1316	1.0	.
H49B	H	0.4550	0.2252	-0.1135	1.0	.
C50	C	0.6773(10)	0.2090(5)	-0.1069(5)	1.0	.
H50	H	0.7331	0.1713	-0.0833	1.0	.
C51	C	0.7440(9)	0.3031(5)	-0.0639(6)	1.0	.
H51A	H	0.8515	0.3180	-0.0737	1.0	.
H51B	H	0.7360	0.3099	-0.0072	1.0	.
H51C	H	0.6867	0.3412	-0.0837	1.0	.
C52	C	0.7021(11)	0.1944(5)	-0.1927(5)	1.0	.
H52A	H	0.6614	0.1340	-0.2186	1.0	.
H52B	H	0.8118	0.2083	-0.1985	1.0	.
H52C	H	0.6496	0.2313	-0.2171	1.0	.
C53	C	0.5972(10)	0.1305(5)	0.0572(5)	1.0	.
H53A	H	0.5874	0.0698	0.0288	1.0	.
H53B	H	0.7004	0.1612	0.0505	1.0	.
C54	C	0.5887(11)	0.1326(6)	0.1449(5)	1.0	.
H54	H	0.5815	0.1923	0.1722	1.0	.
C55	C	0.4502(12)	0.0725(7)	0.1613(6)	1.0	.
H55A	H	0.4432	0.0151	0.1273	1.0	.
H55B	H	0.3581	0.0941	0.1504	1.0	.
H55C	H	0.4594	0.0692	0.2167	1.0	.
C56	C	0.7348(12)	0.1137(7)	0.1800(6)	1.0	.
H56A	H	0.7282	0.1163	0.2363	1.0	.
H56B	H	0.8227	0.1564	0.1729	1.0	.
H56C	H	0.7471	0.0561	0.1531	1.0	.
