data_x14412_config-2
loop_
 _symmetry_equiv_pos_as_xyz
'x, y, z'

_cell_length_a	7.2815(4)
_cell_length_b	8.2665(4)
_cell_length_c	17.4661(9)
_cell_angle_alpha	88.946(4)
_cell_angle_beta	79.384(4)
_cell_angle_gamma	66.082(4)
loop_
 _atom_site_label
 _atom_site_type_symbol
 _atom_site_fract_x
 _atom_site_fract_y
 _atom_site_fract_z
 _atom_site_occupancy
 _atom_site_disorder_group
O1'	O	0.946(2)	-0.4684(18)	0.5300(9)	1.0	2
O2'	O	0.784(2)	-0.382(2)	0.6580(9)	1.0	2
O3'	O	0.176(2)	1.172(2)	0.4908(10)	1.0	2
O4'	O	0.342(3)	1.081(3)	0.3611(15)	1.0	2
C1'	C	0.599(3)	0.454(3)	0.417(2)	1.0	2
C2'	C	0.610(3)	0.325(3)	0.4721(19)	1.0	2
C3'	C	0.719(3)	0.142(3)	0.4521(17)	1.0	2
H3'	H	0.7863	0.1052	0.3994	1.0	2
C4'	C	0.732(3)	0.014(3)	0.5052(15)	1.0	2
C5'	C	0.845(3)	-0.172(2)	0.4820(11)	1.0	2
H5'	H	0.9128	-0.2109	0.4295	1.0	2
C6'	C	0.851(2)	-0.2889(19)	0.5378(10)	1.0	2
C7'	C	0.909(2)	-0.535(2)	0.6049(11)	1.0	2
H7'1	H	1.0397	-0.6033	0.6221	1.0	2
H7'2	H	0.8366	-0.6129	0.6028	1.0	2
C8'	C	0.749(2)	-0.2331(19)	0.6171(10)	1.0	2
C9'	C	0.645(3)	-0.065(3)	0.6397(17)	1.0	2
H9'	H	0.5787	-0.0321	0.6927	1.0	2
C10'	C	0.630(3)	0.070(3)	0.5852(17)	1.0	2
C11'	C	0.523(3)	0.249(3)	0.6055(17)	1.0	2
H11'	H	0.4557	0.2854	0.6582	1.0	2
C12'	C	0.509(3)	0.380(3)	0.5514(19)	1.0	2
C13'	C	0.397(3)	0.566(3)	0.573(2)	1.0	2
C14'	C	0.387(3)	0.693(3)	0.5174(19)	1.0	2
C15'	C	0.276(3)	0.878(3)	0.5387(17)	1.0	2
H15'	H	0.2071	0.9193	0.5908	1.0	2
C16'	C	0.272(3)	0.993(3)	0.4820(14)	1.0	2
C17'	C	0.216(3)	1.236(2)	0.4147(13)	1.0	2
H17C	H	0.2884	1.3142	0.4166	1.0	2
H17D	H	0.0854	1.3047	0.3972	1.0	2
C18'	C	0.372(3)	0.938(3)	0.4050(16)	1.0	2
C19'	C	0.479(3)	0.765(3)	0.3805(16)	1.0	2
H19'	H	0.5458	0.7310	0.3275	1.0	2
C20'	C	0.490(3)	0.635(3)	0.4375(19)	1.0	2
C21	C	0.2967(14)	0.6090(13)	0.6595(6)	1.0	.
C22	C	0.2031(14)	0.6683(14)	0.7232(6)	1.0	.
C32	C	0.7120(14)	0.3805(13)	0.3460(6)	1.0	.
C33	C	0.8061(14)	0.3252(14)	0.2807(6)	1.0	.
Si1	Si	0.0650(6)	0.7710(6)	0.8219(3)	1.0	.
C23	C	0.2511(14)	0.6592(13)	0.8888(6)	1.0	.
H23	H	0.3761	0.6801	0.8671	1.0	.
C24	C	0.3244(18)	0.4570(13)	0.8869(7)	1.0	.
H24A	H	0.4377	0.4064	0.9151	1.0	.
H24B	H	0.3710	0.4084	0.8326	1.0	.
H24C	H	0.2112	0.4269	0.9118	1.0	.
C25	C	0.1813(16)	0.7424(17)	0.9719(6)	1.0	.
H25A	H	0.0613	0.7226	0.9975	1.0	.
H25B	H	0.1454	0.8701	0.9706	1.0	.
H25C	H	0.2923	0.6881	1.0009	1.0	.
C26	C	-0.1834(14)	0.7462(14)	0.8436(7)	1.0	.
H26	H	-0.2599	0.8078	0.8022	1.0	.
C27	C	-0.1551(19)	0.5602(15)	0.8358(12)	1.0	.
H27A	H	-0.1708	0.5149	0.8877	1.0	.
H27B	H	-0.0178	0.4891	0.8059	1.0	.
H27C	H	-0.2579	0.5529	0.8085	1.0	.
C28	C	-0.3215(16)	0.8341(19)	0.9202(7)	1.0	.
H28A	H	-0.4551	0.8301	0.9228	1.0	.
H28B	H	-0.3391	0.9578	0.9243	1.0	.
H28C	H	-0.2598	0.7713	0.9634	1.0	.
C29	C	0.0128(14)	1.0140(12)	0.8186(6)	1.0	.
H29	H	-0.0567	1.0699	0.8723	1.0	.
C30	C	-0.1329(17)	1.1106(15)	0.7630(7)	1.0	.
H30A	H	-0.1680	1.2381	0.7680	1.0	.
H30B	H	-0.2580	1.0899	0.7765	1.0	.
H30C	H	-0.0654	1.0654	0.7091	1.0	.
C31	C	0.2070(17)	1.0452(16)	0.7978(8)	1.0	.
H31A	H	0.2810	0.9900	0.7457	1.0	.
H31B	H	0.2939	0.9929	0.8362	1.0	.
H31C	H	0.1716	1.1730	0.7980	1.0	.
Si2	Si	0.9343(6)	0.2294(6)	0.1802(3)	1.0	.
C34	C	0.9888(14)	-0.0151(12)	0.1802(6)	1.0	.
H34	H	1.0537	-0.0685	0.1259	1.0	.
C35	C	0.7918(17)	-0.0422(16)	0.2040(8)	1.0	.
H35A	H	0.8217	-0.1683	0.1967	1.0	.
H35B	H	0.6938	0.0265	0.1716	1.0	.
H35C	H	0.7330	-0.0023	0.2590	1.0	.
C36	C	1.1411(17)	-0.1100(15)	0.2341(7)	1.0	.
H36A	H	1.0873	-0.0511	0.2866	1.0	.
H36B	H	1.2732	-0.1051	0.2134	1.0	.
H36C	H	1.1596	-0.2341	0.2366	1.0	.
C37	C	1.1844(14)	0.2547(14)	0.1558(7)	1.0	.
H37	H	1.2607	0.2053	0.1989	1.0	.
C38	C	1.3175(16)	0.1505(19)	0.0805(7)	1.0	.
H38A	H	1.2381	0.1818	0.0387	1.0	.
H38B	H	1.3632	0.0233	0.0878	1.0	.
H38C	H	1.4369	0.1792	0.0663	1.0	.
C39	C	1.1519(19)	0.4448(15)	0.1520(12)	1.0	.
H39A	H	1.2849	0.4527	0.1410	1.0	.
H39B	H	1.0731	0.5090	0.2020	1.0	.
H39C	H	1.0765	0.4974	0.1104	1.0	.
C40	C	0.7418(14)	0.3449(13)	0.1163(6)	1.0	.
H40	H	0.6220	0.3156	0.1366	1.0	.
C41	C	0.6575(17)	0.5460(13)	0.1243(7)	1.0	.
H41A	H	0.7644	0.5847	0.1004	1.0	.
H41B	H	0.6132	0.5861	0.1797	1.0	.
H41C	H	0.5406	0.5969	0.0980	1.0	.
C42	C	0.8107(16)	0.2757(16)	0.0307(6)	1.0	.
H42A	H	0.6968	0.3317	0.0032	1.0	.
H42B	H	0.8539	0.1469	0.0275	1.0	.
H42C	H	0.9257	0.3041	0.0066	1.0	.
