data_x15193_config-2
loop_
 _symmetry_equiv_pos_as_xyz
'x, y, z'
'-x, -y, -z'

_cell_length_a	8.1244(3)
_cell_length_b	11.8274(5)
_cell_length_c	16.6285(8)
_cell_angle_alpha	70.294(3)
_cell_angle_beta	75.906(2)
_cell_angle_gamma	82.317(2)
loop_
 _atom_site_label
 _atom_site_type_symbol
 _atom_site_fract_x
 _atom_site_fract_y
 _atom_site_fract_z
 _atom_site_occupancy
 _atom_site_disorder_group
Si1	Si	0.44641(10)	0.67290(6)	0.79972(5)	1.0	.
C1	C	0.4799(3)	0.5420(2)	0.57339(16)	1.0	.
C3'	C	0.3868(14)	0.5224(14)	0.448(1)	1.0	2
C2'	C	0.344(4)	0.571(4)	0.518(2)	1.0	2
C4'	C	0.1787(11)	0.6330(9)	0.5231(7)	1.0	2
C5'	C	0.105(3)	0.631(4)	0.456(2)	1.0	2
S1'	S	0.2319(3)	0.5631(2)	0.38452(17)	1.0	2
C6'	C	-0.050(11)	0.690(14)	0.443(6)	1.0	2
C7'	C	-0.1273(18)	0.7048(17)	0.3768(10)	1.0	2
H7'	H	-0.0768	0.6765	0.3288	1.0	2
C8'	C	-0.291(3)	0.767(4)	0.384(2)	1.0	2
C9'	C	-0.323(3)	0.815(3)	0.4547(19)	1.0	2
S2'	S	-0.1723(7)	0.7563(5)	0.5194(4)	1.0	2
C10'	C	-0.474(4)	0.876(5)	0.480(3)	1.0	2
H10'	H	-0.4907	0.9072	0.5271	1.0	2
C11'	C	-0.601(5)	0.891(7)	0.433(3)	1.0	2
C12'	C	-0.754(3)	0.965(3)	0.4390(18)	1.0	2
H12'	H	-0.7916	1.0042	0.4822	1.0	2
C13'	C	-0.840(3)	0.974(4)	0.378(2)	1.0	2
H13'	H	-0.9493	1.0136	0.3767	1.0	2
S3'	S	-0.729(2)	0.9059(19)	0.3009(10)	1.0	2
C14'	C	-0.563(6)	0.857(8)	0.356(4)	1.0	2
C15'	C	-0.410(3)	0.796(5)	0.332(2)	1.0	2
H15'	H	-0.3882	0.7733	0.2799	1.0	2
C16	C	0.4653(3)	0.5858(2)	0.64538(17)	1.0	.
C17	C	0.4586(4)	0.6231(2)	0.70486(18)	1.0	.
C18'	C	0.669(5)	0.641(2)	0.817(2)	1.0	2
H18'	H	0.6600	0.6436	0.8773	1.0	2
C19'	C	0.782(4)	0.743(2)	0.758(4)	1.0	2
H19D	H	0.7206	0.8201	0.7581	1.0	2
H19E	H	0.8855	0.7355	0.7801	1.0	2
H19F	H	0.8117	0.7383	0.6985	1.0	2
C20'	C	0.766(2)	0.5213(14)	0.8163(9)	1.0	2
H20D	H	0.6944	0.4549	0.8540	1.0	2
H20E	H	0.7960	0.5175	0.7564	1.0	2
H20F	H	0.8698	0.5147	0.8380	1.0	2
C21	C	0.3957(3)	0.8395(2)	0.76676(17)	1.0	.
H21	H	0.4944	0.8780	0.7207	1.0	.
C22	C	0.2386(4)	0.8780(3)	0.7267(2)	1.0	.
H22A	H	0.1374	0.8473	0.7714	1.0	.
H22B	H	0.2509	0.8455	0.6785	1.0	.
H22C	H	0.2267	0.9661	0.7046	1.0	.
C23	C	0.3789(5)	0.8878(3)	0.8436(2)	1.0	.
H23A	H	0.3612	0.9756	0.8234	1.0	.
H23B	H	0.4830	0.8655	0.8666	1.0	.
H23C	H	0.2818	0.8530	0.8899	1.0	.
C24'	C	0.261(3)	0.6050(13)	0.8919(13)	1.0	2
H24C	H	0.2697	0.6312	0.9413	1.0	2
H24D	H	0.1577	0.6481	0.8721	1.0	2
C25'	C	0.2180(15)	0.4732(8)	0.9329(7)	1.0	2
H25C	H	0.3004	0.4312	0.9699	1.0	2
H25D	H	0.1042	0.4697	0.9720	1.0	2
C26'	C	0.2174(16)	0.4051(10)	0.8737(8)	1.0	2
H26C	H	0.3349	0.3974	0.8403	1.0	2
H26D	H	0.1468	0.4515	0.8312	1.0	2
C27'	C	0.1489(17)	0.2769(10)	0.9204(10)	1.0	2
H27C	H	0.0301	0.2854	0.9519	1.0	2
H27D	H	0.1469	0.2404	0.8752	1.0	2
C28'	C	0.249(2)	0.1898(11)	0.9853(14)	1.0	2
H28C	H	0.2382	0.2214	1.0345	1.0	2
H28D	H	0.3702	0.1894	0.9559	1.0	2
C29'	C	0.1956(16)	0.0598(10)	1.0230(9)	1.0	2
H29C	H	0.0851	0.0573	1.0648	1.0	2
H29D	H	0.1780	0.0347	0.9748	1.0	2
C30'	C	0.3193(15)	-0.0301(9)	1.0688(7)	1.0	2
H30C	H	0.4282	-0.0317	1.0265	1.0	2
H30D	H	0.3414	-0.0039	1.1156	1.0	2
C31'	C	0.2568(16)	-0.1535(9)	1.1078(7)	1.0	2
H31D	H	0.3419	-0.2082	1.1367	1.0	2
H31E	H	0.1502	-0.1529	1.1507	1.0	2
H31F	H	0.2370	-0.1808	1.0616	1.0	2
