data_x15297_config-1
loop_
 _symmetry_equiv_pos_as_xyz
'x, y, z'
'-x, -y, -z'

_cell_length_a	10.1547(4)
_cell_length_b	10.3853(4)
_cell_length_c	14.1353(6)
_cell_angle_alpha	78.723(2)
_cell_angle_beta	82.090(2)
_cell_angle_gamma	69.285(2)
loop_
 _atom_site_label
 _atom_site_type_symbol
 _atom_site_fract_x
 _atom_site_fract_y
 _atom_site_fract_z
 _atom_site_occupancy
 _atom_site_disorder_group
Si1	Si	0.12884(5)	0.83514(5)	0.18986(3)	1.0	.
C1	C	0.41913(16)	0.57109(17)	0.41753(11)	1.0	.
C2	C	0.41721(17)	0.44031(17)	0.46594(12)	1.0	1
S1	S	0.32143(5)	0.34846(5)	0.43465(3)	1.0	1
C3	C	0.49574(17)	0.37020(17)	0.54737(12)	1.0	1
C4	C	0.4728(3)	0.2400(3)	0.5815(2)	1.0	1
H4	H	0.5175	0.1764	0.6351	1.0	1
C5	C	0.38276(17)	0.21480(16)	0.53159(12)	1.0	1
C6	C	0.33666(17)	0.09431(17)	0.54891(11)	1.0	1
S2	S	0.39094(5)	-0.03250(4)	0.65091(3)	1.0	1
C7	C	0.2551(2)	0.0614(2)	0.49712(18)	1.0	1
H7	H	0.2178	0.1184	0.4391	1.0	1
C8	C	0.2289(4)	-0.0650(3)	0.53561(17)	1.0	1
C9	C	0.1503(4)	-0.1287(4)	0.4999(3)	1.0	1
H9	H	0.1036	-0.0875	0.4421	1.0	1
C10	C	0.1424(5)	-0.2540(4)	0.5514(2)	1.0	1
S3	S	0.04863(6)	-0.35167(5)	0.52345(4)	1.0	1
C11	C	0.1057(14)	-0.4775(7)	0.6223(5)	1.0	1
H11	H	0.0779	-0.5578	0.6389	1.0	1
C12	C	0.1926(3)	-0.4520(3)	0.67360(19)	1.0	1
H12	H	0.2350	-0.5134	0.7287	1.0	1
C13	C	0.2152(7)	-0.3212(4)	0.6363(3)	1.0	1
C14	C	0.2959(3)	-0.2591(2)	0.6712(2)	1.0	1
H14	H	0.3463	-0.3027	0.7272	1.0	1
C15	C	0.3002(3)	-0.1315(2)	0.6213(2)	1.0	1
C16	C	0.33397(17)	0.64768(17)	0.33872(12)	1.0	.
C17	C	0.25807(18)	0.71988(18)	0.27641(12)	1.0	.
C18	C	0.08051(19)	1.02023(18)	0.20926(13)	1.0	1
H18A	H	0.0163	1.0810	0.1595	1.0	1
H18B	H	0.0270	1.0298	0.2730	1.0	1
C19	C	0.2030(9)	1.0743(9)	0.2058(16)	1.0	1
H19A	H	0.2599	1.0233	0.2615	1.0	1
H19B	H	0.2645	1.0537	0.1460	1.0	1
C20	C	0.157(2)	1.2305(11)	0.2082(8)	1.0	1
H20A	H	0.0896	1.2811	0.1581	1.0	1
H20B	H	0.1073	1.2495	0.2719	1.0	1
C21	C	0.2765(5)	1.2850(4)	0.1913(3)	1.0	1
H21A	H	0.3466	1.2318	0.2382	1.0	1
H21B	H	0.2415	1.3835	0.1991	1.0	1
H21C	H	0.3202	1.2758	0.1256	1.0	1
C22	C	0.20963(19)	0.81413(18)	0.06409(12)	1.0	.
H22A	H	0.1434	0.8809	0.0175	1.0	.
H22B	H	0.2971	0.8381	0.0548	1.0	.
C23	C	0.2453(2)	0.66678(19)	0.04125(13)	1.0	.
H23A	H	0.3117	0.6000	0.0877	1.0	.
H23B	H	0.1578	0.6427	0.0506	1.0	.
C24	C	0.3108(2)	0.6498(2)	-0.06137(13)	1.0	.
H24A	H	0.2438	0.7148	-0.1081	1.0	.
H24B	H	0.3975	0.6752	-0.0714	1.0	.
C25	C	0.3475(3)	0.5024(2)	-0.08112(15)	1.0	.
H25A	H	0.4098	0.4371	-0.0328	1.0	.
H25B	H	0.3956	0.4949	-0.1459	1.0	.
H25C	H	0.2608	0.4799	-0.0774	1.0	.
C26	C	-0.03032(18)	0.77935(18)	0.21349(12)	1.0	.
H26A	H	-0.0005	0.6793	0.2079	1.0	.
H26B	H	-0.0694	0.7893	0.2809	1.0	.
C27	C	-0.14772(18)	0.86131(18)	0.14530(13)	1.0	.
H27A	H	-0.1863	0.9595	0.1564	1.0	.
H27B	H	-0.1070	0.8606	0.0775	1.0	.
C28	C	-0.26698(19)	0.80171(19)	0.15964(13)	1.0	.
H28A	H	-0.3004	0.7929	0.2290	1.0	.
H28B	H	-0.2299	0.7069	0.1421	1.0	.
C29	C	-0.3918(2)	0.8895(2)	0.10024(17)	1.0	.
H29A	H	-0.4303	0.9831	0.1179	1.0	.
H29B	H	-0.4649	0.8457	0.1133	1.0	.
H29C	H	-0.3604	0.8960	0.0313	1.0	.
