data_x16026_config-2
loop_
 _symmetry_equiv_pos_as_xyz
'x, y, z'
'-x, -y, -z'

_cell_length_a	9.9556(2)
_cell_length_b	10.1493(2)
_cell_length_c	14.9580(3)
_cell_angle_alpha	92.564(1)
_cell_angle_beta	98.008(1)
_cell_angle_gamma	110.722(1)
loop_
 _atom_site_label
 _atom_site_type_symbol
 _atom_site_fract_x
 _atom_site_fract_y
 _atom_site_fract_z
 _atom_site_occupancy
 _atom_site_disorder_group
Si1	Si	0.63394(6)	-0.08948(5)	0.14075(3)	1.0	.
C1	C	0.90632(18)	-0.03503(18)	0.41312(11)	1.0	.
C2'	C	0.92067(18)	0.08197(18)	0.47209(12)	1.0	2
F1'	F	0.7659(4)	0.1972(3)	0.4023(2)	1.0	2
C3'	C	0.8632(5)	0.1979(5)	0.4749(3)	1.0	2
C4'	C	0.907(4)	0.295(3)	0.548(2)	1.0	2
S5'	S	1.03345(13)	0.26403(12)	0.62737(10)	1.0	2
C6'	C	1.01264(19)	0.11707(17)	0.55677(11)	1.0	2
C8'	C	0.9061(6)	0.5145(6)	0.6288(4)	1.0	2
H8'	H	0.9793	0.5175	0.6778	1.0	2
C9'	C	0.835(3)	0.6152(19)	0.6227(14)	1.0	2
C10'	C	0.858(2)	0.7328(15)	0.6829(11)	1.0	2
H10'	H	0.9264	0.7529	0.7376	1.0	2
C11'	C	0.7816(17)	0.8194(15)	0.6616(9)	1.0	2
S12'	S	0.78479(17)	0.97084(14)	0.72352(11)	1.0	2
C13'	C	0.671(2)	1.0039(18)	0.6391(15)	1.0	2
H13'	H	0.6509	1.0885	0.6397	1.0	2
C14'	C	0.6131(7)	0.8976(6)	0.5708(5)	1.0	2
H14'	H	0.5380	0.8929	0.5226	1.0	2
C15'	C	0.6793(17)	0.7929(13)	0.5804(8)	1.0	2
C16'	C	0.6561(18)	0.6775(14)	0.5189(10)	1.0	2
H16'	H	0.5879	0.6575	0.4643	1.0	2
C17'	C	0.736(3)	0.592(2)	0.5402(13)	1.0	2
S18'	S	0.72856(15)	0.44061(14)	0.47675(10)	1.0	2
C7'	C	0.857(6)	0.414(4)	0.556(3)	1.0	2
C19	C	0.8175(2)	-0.0625(2)	0.32590(12)	1.0	.
C20	C	0.7453(2)	-0.0781(2)	0.25212(13)	1.0	.
C21'	C	0.7456(8)	-0.0793(8)	0.0456(4)	1.0	2
H21C	H	0.6788	-0.0812	-0.0104	1.0	2
H21D	H	0.8203	0.0175	0.0558	1.0	2
C22'	C	0.8183(14)	-0.1646(14)	0.0220(9)	1.0	2
H22'	H	0.9182	-0.0906	0.0377	1.0	2
C23'	C	0.8270(17)	-0.1964(13)	-0.0733(8)	1.0	2
H23D	H	0.8827	-0.2585	-0.0768	1.0	2
H23E	H	0.7285	-0.2439	-0.1076	1.0	2
H23F	H	0.8754	-0.1081	-0.0990	1.0	2
C24'	C	0.8462(17)	-0.2722(13)	0.0891(7)	1.0	2
H24D	H	0.8990	-0.3244	0.0619	1.0	2
H24E	H	0.9041	-0.2197	0.1466	1.0	2
H24F	H	0.7527	-0.3390	0.1003	1.0	2
C25'	C	0.4712(7)	-0.2471(7)	0.1202(4)	1.0	2
H25C	H	0.4149	-0.2438	0.0609	1.0	2
H25D	H	0.5016	-0.3295	0.1140	1.0	2
C26'	C	0.3703(11)	-0.2751(12)	0.1880(7)	1.0	2
H26'	H	0.3682	-0.1813	0.2098	1.0	2
C27'	C	0.4205(19)	-0.3362(17)	0.2711(8)	1.0	2
H27D	H	0.3495	-0.3519	0.3126	1.0	2
H27E	H	0.4288	-0.4265	0.2526	1.0	2
H27F	H	0.5155	-0.2699	0.3019	1.0	2
C28'	C	0.2137(16)	-0.368(3)	0.1465(18)	1.0	2
H28D	H	0.1520	-0.3829	0.1936	1.0	2
H28E	H	0.1773	-0.3204	0.0984	1.0	2
H28F	H	0.2114	-0.4592	0.1208	1.0	2
C29'	C	0.5806(7)	0.0748(7)	0.1489(4)	1.0	2
H29C	H	0.5352	0.0830	0.0871	1.0	2
H29D	H	0.5034	0.0542	0.1871	1.0	2
C30'	C	0.6939(16)	0.2218(13)	0.1852(11)	1.0	2
H30'	H	0.7588	0.2084	0.2385	1.0	2
C31'	C	0.6261(10)	0.3214(9)	0.2189(6)	1.0	2
H31D	H	0.5649	0.2773	0.2634	1.0	2
H31E	H	0.7029	0.4096	0.2476	1.0	2
H31F	H	0.5662	0.3420	0.1678	1.0	2
C32'	C	0.7903(11)	0.286(1)	0.1156(6)	1.0	2
H32D	H	0.8329	0.2189	0.0949	1.0	2
H32E	H	0.7317	0.3064	0.0637	1.0	2
H32F	H	0.8684	0.3740	0.1434	1.0	2
