data_p1_config-0
loop_
 _symmetry_equiv_pos_as_xyz
'x, y, z'

_cell_length_a	10.0810(10)
_cell_length_b	17.6700(10)
_cell_length_c	19.5880(10)
_cell_angle_alpha	94.58(2)
_cell_angle_beta	93.11(2)
_cell_angle_gamma	105.28(2)
loop_
 _atom_site_label
 _atom_site_type_symbol
 _atom_site_fract_x
 _atom_site_fract_y
 _atom_site_fract_z
 _atom_site_occupancy
 _atom_site_disorder_group
Si1	Si	0.5841(6)	0.1632(3)	0.5339(3)	1.0	.
Si2	Si	0.3081(5)	0.1747(3)	0.8561(3)	1.0	.
C994	C	0.4271(15)	0.5529(9)	0.8004(7)	1.0	.
C995	C	0.4083(14)	0.5350(8)	0.6738(7)	1.0	.
Si6	Si	0.2530(6)	0.8732(3)	1.1889(3)	1.0	.
C996	C	0.4878(17)	0.6852(10)	0.8623(8)	1.0	.
Si8	Si	0.0194(6)	0.1875(4)	1.1788(3)	1.0	.
C997	C	0.4525(17)	0.5725(9)	0.9284(8)	1.0	.
C998	C	0.3955(17)	0.5156(9)	0.5483(8)	1.0	.
C999	C	0.0780(19)	0.5258(10)	0.8577(9)	1.0	.
C1	C	0.7468(17)	0.5563(10)	0.6137(8)	1.0	.
C2	C	0.4325(16)	0.5867(9)	0.7360(8)	1.0	.
Si99	Si	0.8081(7)	0.8442(4)	0.5266(3)	1.0	.
C4	C	0.357(2)	0.4188(12)	0.7391(11)	1.0	.
C5	C	0.1062(16)	0.5395(9)	0.9862(8)	1.0	.
C6	C	0.1342(17)	0.5634(10)	1.1102(8)	1.0	.
C7	C	0.4215(16)	0.5631(9)	0.6052(8)	1.0	.
C8	C	0.1263(15)	0.5778(9)	1.2360(7)	1.0	.
C9	C	0.7480(17)	0.5403(10)	0.4902(8)	1.0	.
C10	C	0.7661(19)	0.5801(11)	0.4248(9)	1.0	.
C11	C	0.7716(18)	0.5437(10)	0.1738(9)	1.0	.
C12	C	0.4521(15)	0.6027(9)	0.8582(7)	1.0	.
C13	C	0.7648(18)	0.5739(10)	0.7380(9)	1.0	.
C14	C	0.8047(18)	0.6331(10)	0.8040(9)	1.0	.
C15	C	0.7798(15)	0.5531(8)	0.2992(7)	1.0	.
C16	C	0.0949(15)	0.5554(8)	0.7925(7)	1.0	.
C17	C	0.1922(15)	0.6898(9)	1.1723(7)	1.0	.
C18	C	0.4633(18)	0.5872(10)	1.0546(9)	1.0	.
C19	C	0.3821(19)	0.4353(10)	0.8604(9)	1.0	.
C20	C	0.7457(17)	0.5225(9)	0.3593(8)	1.0	.
C21	C	0.7850(19)	0.6742(12)	0.5487(9)	1.0	.
C22	C	0.7594(14)	0.5900(8)	0.5528(7)	1.0	.
C23	C	0.7779(17)	0.6132(10)	0.6736(8)	1.0	.
C24	C	0.7469(18)	0.5035(10)	0.2410(9)	1.0	.
C25	C	0.3204(17)	0.2795(10)	0.8644(8)	1.0	.
C26	C	0.1300(15)	0.5952(9)	1.3637(8)	1.0	.
C27	C	0.329(2)	0.3859(11)	0.4848(10)	1.0	.
C28	C	0.936(3)	0.8749(16)	0.4736(14)	1.0	.
C29	C	0.0476(17)	0.2906(10)	1.1805(8)	1.0	.
C30	C	0.3376(18)	0.3995(10)	0.6076(9)	1.0	.
C31	C	0.4157(17)	0.5501(10)	0.4821(8)	1.0	.
C33	C	0.4805(18)	0.6023(10)	1.1781(9)	1.0	.
C34	C	0.0194(17)	0.3889(10)	0.7985(9)	1.0	.
C35	C	0.610(2)	0.1393(14)	0.4437(12)	1.0	.
C36	C	0.3983(17)	0.4544(10)	0.9918(9)	1.0	.
C37	C	0.2161(19)	0.7605(11)	1.1747(9)	1.0	.
C38	C	-0.121(4)	0.135(2)	1.1845(19)	1.0	.
C39	C	0.734(2)	0.4771(11)	0.9306(11)	1.0	.
C40	C	0.1236(16)	0.6117(9)	1.4892(8)	1.0	.
C41	C	-0.0131(19)	0.3430(10)	0.7441(9)	1.0	.
C42	C	0.299(2)	0.1414(12)	0.7613(10)	1.0	.
C43	C	0.1501(14)	0.6476(8)	1.4202(7)	1.0	.
C44	C	0.6927(16)	0.4048(9)	0.4286(8)	1.0	.
C45	C	0.1526(16)	0.6274(9)	1.2983(8)	1.0	.
C46	C	0.1184(19)	0.5759(10)	0.9162(9)	1.0	.
C47	C	0.0592(17)	0.4273(10)	1.0437(8)	1.0	.
C48	C	0.1126(16)	0.5907(9)	0.7380(8)	1.0	.
C49	C	0.7004(15)	0.4376(8)	0.6795(7)	1.0	.
C50	C	0.1293(17)	0.5889(9)	1.0418(8)	1.0	.
C51	C	0.0448(18)	0.4739(10)	1.5977(9)	1.0	.
C52	C	0.2229(16)	0.8889(9)	1.2824(8)	1.0	.
C53	C	0.6099(16)	0.2640(9)	0.5525(7)	1.0	.
C54	C	0.8013(19)	0.7408(11)	0.5432(9)	1.0	.
C55	C	0.4927(15)	0.6362(9)	1.1125(7)	1.0	.
C56	C	0.7203(16)	0.4759(9)	0.6200(8)	1.0	.
C57	C	0.1489(16)	0.6112(9)	1.1698(8)	1.0	.
C58	C	0.0569(16)	0.3621(10)	1.1785(8)	1.0	.
C59	C	0.7800(17)	0.5912(10)	0.8678(8)	1.0	.
C60	C	0.3570(17)	0.4309(9)	0.5512(8)	1.0	.
C61	C	0.3670(15)	0.4519(9)	0.6770(8)	1.0	.
C62	C	0.431(2)	0.9194(13)	1.1644(10)	1.0	.
C63	C	0.486(2)	0.1581(13)	0.8942(11)	1.0	.
C64	C	0.4780(15)	0.6171(8)	0.9883(7)	1.0	.
C66	C	0.0423(17)	0.4100(10)	0.9216(9)	1.0	.
C67	C	0.6900(17)	0.4244(10)	0.5519(8)	1.0	.
C68	C	0.304(2)	0.3415(11)	0.4317(10)	1.0	.
C69	C	0.0421(15)	0.4370(9)	0.8613(8)	1.0	.
C71	C	0.7179(16)	0.4624(9)	0.8090(8)	1.0	.
C72	C	0.2088(16)	0.9801(9)	1.3012(8)	1.0	.
C73	C	0.1243(19)	0.9052(10)	1.1344(9)	1.0	.
C74	C	0.162(2)	0.0437(11)	0.9281(10)	1.0	.
C75	C	0.192(2)	0.1812(13)	0.7153(11)	1.0	.
C76	C	0.1932(17)	0.1640(10)	1.1933(8)	1.0	.
C77	C	0.0719(17)	0.4420(10)	1.1779(9)	1.0	.
C78	C	0.5447(18)	0.7039(10)	1.2889(9)	1.0	.
C79	C	0.644(2)	0.8612(13)	0.5266(11)	1.0	.
C80	C	0.7002(19)	0.1537(10)	0.6707(9)	1.0	.
C82	C	0.7315(17)	0.4912(10)	0.7448(8)	1.0	.
C83	C	0.148(2)	0.8931(12)	1.0612(11)	1.0	.
C84	C	0.3224(15)	0.8691(9)	1.3325(7)	1.0	.
C86	C	0.716(2)	0.1346(11)	0.5870(9)	1.0	.
C90	C	0.7145(16)	0.4189(9)	0.2480(9)	1.0	.
C91	C	0.914(2)	0.9923(13)	0.6358(11)	1.0	.
C92	C	0.292(2)	0.0507(13)	0.7521(11)	1.0	.
C93	C	0.494(3)	0.1686(15)	0.3900(13)	1.0	.
C94	C	0.732(2)	0.4540(12)	0.9838(12)	1.0	.
C95	C	0.0670(14)	0.4662(8)	1.3006(7)	1.0	.
C97	C	0.6999(19)	0.3917(11)	0.3007(10)	1.0	.
C100	C	0.176(3)	0.1311(14)	0.9062(12)	1.0	.
C101	C	0.1460(18)	0.6664(10)	1.5487(9)	1.0	.
C102	C	0.402(2)	0.1117(12)	0.5628(10)	1.0	.
C103	C	0.6899(18)	0.3712(10)	0.1802(9)	1.0	.
C104	C	0.5109(15)	0.6608(9)	1.2382(8)	1.0	.
C106	C	0.8024(15)	0.5731(9)	0.1175(8)	1.0	.
C107	C	0.4392(15)	0.5835(8)	0.4266(7)	1.0	.
C108	C	0.678(2)	0.3278(11)	0.1267(10)	1.0	.
C110	C	0.574(2)	0.8219(11)	0.4622(10)	1.0	.
C111	C	0.269(2)	0.1861(12)	1.1234(11)	1.0	.
C112	C	0.615(3)	0.0610(15)	0.4110(13)	1.0	.
C113	C	-0.024(3)	0.8620(15)	1.1530(13)	1.0	.
C114	C	0.6505(17)	0.3353(10)	0.5561(8)	1.0	.
C115	C	0.9761(19)	0.8714(10)	0.6666(9)	1.0	.
C116	C	0.7118(17)	0.4372(9)	0.3675(8)	1.0	.
C118	C	0.0691(16)	0.4756(9)	1.4249(8)	1.0	.
C119	C	0.283(3)	0.1422(15)	0.5237(14)	1.0	.
C120	C	0.852(2)	0.6975(13)	0.9769(11)	1.0	.
C121	C	0.033(2)	0.1374(11)	0.8770(10)	1.0	.
C122	C	0.0696(17)	0.4549(10)	0.9816(9)	1.0	.
C123	C	0.178(2)	0.7125(11)	1.5967(10)	1.0	.
C124	C	-0.100(2)	0.0648(13)	1.2650(11)	1.0	.
C127	C	0.8247(19)	0.6501(11)	0.9284(9)	1.0	.
C128	C	0.8630(19)	0.1782(10)	0.5771(9)	1.0	.
C131	C	0.3526(16)	0.3508(10)	0.8660(8)	1.0	.
C134	C	0.5543(19)	0.8938(10)	1.2061(9)	1.0	.
C139	C	0.7396(14)	0.5140(8)	0.8687(7)	1.0	.
C140	C	0.900(2)	0.8903(12)	0.6405(11)	1.0	.
C144	C	0.0847(18)	0.4727(10)	1.1081(9)	1.0	.
C145	C	0.0495(16)	0.4978(9)	1.5476(8)	1.0	.
C154	C	0.3902(15)	0.4725(9)	0.8033(8)	1.0	.
C155	C	0.7073(18)	0.4547(10)	0.4926(9)	1.0	.
C159	C	0.0708(16)	0.5253(10)	1.4848(8)	1.0	.
C163	C	0.322(2)	0.2214(11)	1.2471(10)	1.0	.
C169	C	0.4102(17)	0.4873(10)	0.9279(8)	1.0	.
C170	C	0.0944(17)	0.4978(10)	1.2380(8)	1.0	.
Si3	Si	0.5203(6)	0.8601(3)	0.8689(3)	1.0	.
C65	C	0.6631(18)	0.8714(10)	1.0036(9)	1.0	.
C70	C	0.548(2)	0.8926(11)	0.9644(10)	1.0	.
C81	C	0.3602(19)	0.8787(10)	0.8344(9)	1.0	.
C85	C	0.325(2)	0.8440(11)	0.7565(10)	1.0	.
C88	C	0.5616(15)	0.9791(9)	0.9835(7)	1.0	.
C89	C	0.667(2)	0.9044(11)	0.8146(9)	1.0	.
C96	C	0.2303(13)	0.8327(7)	0.8668(6)	1.0	.
C130	C	0.815(3)	0.8936(15)	0.8423(13)	1.0	.
C187	C	0.680(3)	0.9986(14)	0.8094(12)	1.0	.
C801	C	0.4323(17)	0.5165(9)	1.1788(8)	1.0	.
C802	C	0.479(2)	1.0147(11)	1.1779(10)	1.0	.
C803	C	0.4114(17)	0.4639(10)	1.1143(9)	1.0	.
C804	C	0.4219(18)	0.4988(10)	1.0556(9)	1.0	.
C806	C	0.4170(19)	0.4863(11)	1.2454(10)	1.0	.
C807	C	0.0827(18)	0.5127(10)	1.3568(9)	1.0	.
C808	C	0.404(2)	0.4636(11)	1.2973(10)	1.0	.
C809	C	0.5022(16)	0.7548(10)	0.8609(8)	1.0	.
C812	C	0.499(2)	0.1884(12)	0.9741(11)	1.0	.
C816	C	0.568(3)	0.8476(16)	0.5917(14)	1.0	.
C718	C	0.378(3)	0.0142(15)	0.5528(13)	1.0	.
