data_k03261_config-0
loop_
 _symmetry_equiv_pos_as_xyz
'x, y, z'
'-x, -y, -z'

_cell_length_a	7.7182(3)
_cell_length_b	15.5451(5)
_cell_length_c	16.8752(7)
_cell_angle_alpha	102.2466(14)
_cell_angle_beta	92.6664(15)
_cell_angle_gamma	91.5455(15)
loop_
 _atom_site_label
 _atom_site_type_symbol
 _atom_site_fract_x
 _atom_site_fract_y
 _atom_site_fract_z
 _atom_site_occupancy
 _atom_site_disorder_group
Si1	Si	0.24812(13)	0.61778(6)	0.67562(6)	1.0	.
Si2	Si	-0.26210(12)	0.86832(6)	1.32967(6)	1.0	.
F1	F	-0.2139(3)	0.39500(12)	0.82919(11)	1.0	.
F2	F	-0.3997(3)	0.28448(12)	0.90086(12)	1.0	.
F3	F	-0.4862(2)	0.33463(12)	1.05518(12)	1.0	.
F4	F	-0.3881(2)	0.49758(12)	1.14465(11)	1.0	.
F5	F	0.1557(3)	1.08494(12)	1.17061(12)	1.0	.
F6	F	0.3255(3)	1.19768(12)	1.09599(12)	1.0	.
F7	F	0.4320(3)	1.14394(12)	0.94579(12)	1.0	.
F8	F	0.3683(2)	0.97483(12)	0.86241(12)	1.0	.
C1	C	0.0492(4)	0.7066(2)	0.92389(19)	1.0	.
C2	C	-0.0529(4)	0.6493(2)	0.95895(19)	1.0	.
C3	C	-0.1066(4)	0.5642(2)	0.9148(2)	1.0	.
H3	H	-0.0773	0.5460	0.8599	1.0	.
C4	C	-0.2014(4)	0.5069(2)	0.9503(2)	1.0	.
C5	C	-0.2560(4)	0.4200(2)	0.9067(2)	1.0	.
C6	C	-0.3485(4)	0.3659(2)	0.9417(2)	1.0	.
C7	C	-0.3929(4)	0.3915(2)	1.0236(2)	1.0	.
C8	C	-0.3439(4)	0.4727(2)	1.0671(2)	1.0	.
C9	C	-0.2477(4)	0.5338(2)	1.0334(2)	1.0	.
C10	C	-0.1998(4)	0.6174(2)	1.0766(2)	1.0	.
H10	H	-0.2317	0.6352	1.1312	1.0	.
C11	C	-0.1040(4)	0.6771(2)	1.04124(19)	1.0	.
C12	C	-0.0580(4)	0.7636(2)	1.08547(19)	1.0	.
C13	C	0.0404(4)	0.8222(2)	1.04925(19)	1.0	.
C14	C	0.0814(4)	0.9094(2)	1.0915(2)	1.0	.
H14	H	0.0467	0.9285	1.1455	1.0	.
C15	C	0.1715(4)	0.9674(2)	1.0551(2)	1.0	.
C16	C	0.2080(4)	1.0570(2)	1.0953(2)	1.0	.
C17	C	0.2929(4)	1.1131(2)	1.0590(2)	1.0	.
C18	C	0.3484(4)	1.0854(2)	0.9791(2)	1.0	.
C19	C	0.3158(4)	1.0012(2)	0.9385(2)	1.0	.
C20	C	0.2263(4)	0.9390(2)	0.9742(2)	1.0	.
C21	C	0.1901(4)	0.8521(2)	0.9325(2)	1.0	.
H21	H	0.2297	0.8327	0.8795	1.0	.
C22	C	0.0963(4)	0.7935(2)	0.96826(19)	1.0	.
C23	C	0.1086(4)	0.6779(2)	0.8441(2)	1.0	.
C24	C	0.1656(4)	0.6538(2)	0.7776(2)	1.0	.
C25	C	0.4789(5)	0.6614(2)	0.6785(2)	1.0	.
H25	H	0.5176	0.6468	0.6217	1.0	.
C26	C	0.4930(5)	0.7625(3)	0.7069(3)	1.0	.
H26A	H	0.4530	0.7794	0.7621	1.0	.
H26B	H	0.4208	0.7894	0.6702	1.0	.
H26C	H	0.6142	0.7828	0.7063	1.0	.
C27	C	0.6036(5)	0.6180(3)	0.7304(3)	1.0	.
H27A	H	0.7211	0.6436	0.7306	1.0	.
H27B	H	0.6037	0.5545	0.7076	1.0	.
H27C	H	0.5657	0.6281	0.7861	1.0	.
C28	C	0.1001(5)	0.6619(2)	0.6022(2)	1.0	.
H28	H	0.0037	0.6167	0.5841	1.0	.
C29	C	0.0147(5)	0.7480(3)	0.6392(2)	1.0	.
H29A	H	0.1034	0.7959	0.6527	1.0	.
H29B	H	-0.0415	0.7415	0.6886	1.0	.
H29C	H	-0.0723	0.7617	0.6000	1.0	.
C30	C	0.1906(6)	0.6715(3)	0.5257(2)	1.0	.
H30A	H	0.1042	0.6817	0.4847	1.0	.
H30B	H	0.2510	0.6174	0.5044	1.0	.
H30C	H	0.2748	0.7214	0.5391	1.0	.
C31	C	0.2353(5)	0.4937(2)	0.6522(2)	1.0	.
H31	H	0.3215	0.4740	0.6900	1.0	.
C32	C	0.2854(6)	0.4542(2)	0.5654(2)	1.0	.
H32A	H	0.2802	0.3898	0.5565	1.0	.
H32B	H	0.4035	0.4746	0.5579	1.0	.
H32C	H	0.2044	0.4730	0.5265	1.0	.
C33	C	0.0566(5)	0.4576(2)	0.6677(3)	1.0	.
H33A	H	-0.0324	0.4790	0.6341	1.0	.
H33B	H	0.0332	0.4777	0.7251	1.0	.
H33C	H	0.0545	0.3931	0.6538	1.0	.
C34	C	-0.1174(4)	0.7934(2)	1.1654(2)	1.0	.
C35	C	-0.1716(4)	0.8206(2)	1.2315(2)	1.0	.
C36	C	-0.0766(4)	0.9275(2)	1.3985(2)	1.0	.
H36	H	-0.1259	0.9563	1.4509	1.0	.
C37	C	0.0065(5)	1.0011(2)	1.3623(2)	1.0	.
H37A	H	0.1012	1.0314	1.3993	1.0	.
H37B	H	-0.0815	1.0435	1.3548	1.0	.
H37C	H	0.0523	0.9752	1.3097	1.0	.
C38	C	0.0603(5)	0.8644(2)	1.4180(2)	1.0	.
H38A	H	0.1025	0.8304	1.3673	1.0	.
H38B	H	0.0085	0.8241	1.4486	1.0	.
H38C	H	0.1574	0.8983	1.4507	1.0	.
C39	C	-0.4204(4)	0.9514(2)	1.3081(2)	1.0	.
H39	H	-0.3548	0.9898	1.2783	1.0	.
C40	C	-0.5767(4)	0.9123(2)	1.2510(2)	1.0	.
H40A	H	-0.6561	0.8811	1.2799	1.0	.
H40B	H	-0.5363	0.8709	1.2038	1.0	.
H40C	H	-0.6374	0.9597	1.2328	1.0	.
C41	C	-0.4794(5)	1.0132(2)	1.3839(2)	1.0	.
H41A	H	-0.5502	1.0588	1.3679	1.0	.
H41B	H	-0.3776	1.0410	1.4174	1.0	.
H41C	H	-0.5485	0.9797	1.4150	1.0	.
C42	C	-0.3486(5)	0.7734(2)	1.3717(2)	1.0	.
H42	H	-0.2476	0.7354	1.3763	1.0	.
C43	C	-0.4101(5)	0.8026(2)	1.4582(2)	1.0	.
H43A	H	-0.5159	0.8359	1.4567	1.0	.
H43B	H	-0.3193	0.8401	1.4924	1.0	.
H43C	H	-0.4344	0.7506	1.4806	1.0	.
C44	C	-0.4870(5)	0.7137(2)	1.3158(2)	1.0	.
H44A	H	-0.5149	0.6624	1.3386	1.0	.
H44B	H	-0.4421	0.6940	1.2618	1.0	.
H44C	H	-0.5920	0.7468	1.3113	1.0	.
