data_k03292_config-1
loop_
 _symmetry_equiv_pos_as_xyz
'x, y, z'
'-x, -y, -z'

_cell_length_a	7.86230(10)
_cell_length_b	15.1731(2)
_cell_length_c	17.1191(3)
_cell_angle_alpha	74.7278(7)
_cell_angle_beta	85.9386(7)
_cell_angle_gamma	84.9098(7)
loop_
 _atom_site_label
 _atom_site_type_symbol
 _atom_site_fract_x
 _atom_site_fract_y
 _atom_site_fract_z
 _atom_site_occupancy
 _atom_site_disorder_group
Si1	Si	0.95654(11)	0.28790(6)	-0.31887(5)	1.0	.
Si2	Si	0.58991(11)	0.19696(6)	0.34306(5)	1.0	.
C1	C	0.9535(4)	0.21747(19)	-0.04871(17)	1.0	.
C2	C	0.8756(4)	0.13614(19)	-0.00644(17)	1.0	.
C3	C	0.8226(4)	0.07501(19)	-0.04752(17)	1.0	.
H3	H	0.8392	0.0887	-0.1048	1.0	.
C4	C	0.7471(4)	-0.00432(19)	-0.00685(18)	1.0	.
C5	C	0.6928(4)	-0.0665(2)	-0.04867(18)	1.0	.
H5	H	0.7079	-0.0528	-0.1061	1.0	.
C6	C	0.6200(4)	-0.1448(2)	-0.00757(19)	1.0	.
C7	C	0.5972(4)	-0.1667(2)	0.07948(19)	1.0	.
C8	C	0.6466(4)	-0.1087(2)	0.12119(18)	1.0	.
H8	H	0.6314	-0.1240	0.1786	1.0	.
C9	C	0.7204(4)	-0.0255(2)	0.08003(17)	1.0	.
C10	C	0.7682(4)	0.03522(19)	0.12125(18)	1.0	.
H10	H	0.7477	0.0219	0.1784	1.0	.
C11	C	0.8459(4)	0.11588(19)	0.08091(17)	1.0	.
C12	C	0.8923(4)	0.1785(2)	0.12256(17)	1.0	.
C13	C	0.9838(4)	0.25533(19)	0.08146(17)	1.0	.
C14	C	1.0433(4)	0.3139(2)	0.12329(17)	1.0	.
H14	H	1.0232	0.3013	0.1804	1.0	.
C15	C	1.1304(4)	0.3897(2)	0.08318(17)	1.0	.
C16	C	1.1952(4)	0.4483(2)	0.12568(19)	1.0	.
H16	H	1.1795	0.4348	0.1830	1.0	.
C17	C	1.2791(4)	0.5233(2)	0.08501(19)	1.0	.
C18	C	1.3036(4)	0.5449(2)	-0.00169(19)	1.0	.
C19	C	1.2464(4)	0.4897(2)	-0.04390(18)	1.0	.
H19	H	1.2648	0.5042	-0.1012	1.0	.
C20	C	1.1589(4)	0.41022(19)	-0.00312(17)	1.0	.
C21	C	1.1006(4)	0.35296(19)	-0.04535(17)	1.0	.
H21	H	1.1200	0.3667	-0.1026	1.0	.
C22	C	1.0138(4)	0.27534(19)	-0.00549(17)	1.0	.
C23	C	0.9682(4)	0.24064(19)	-0.13486(18)	1.0	.
C24	C	0.9731(4)	0.2605(2)	-0.20822(18)	1.0	.
C25	C	1.1791(4)	0.3035(2)	-0.36609(19)	1.0	.
H25	H	1.2436	0.2422	-0.3498	1.0	.
C26	C	1.2771(5)	0.3696(3)	-0.3348(3)	1.0	.
H26A	H	1.3966	0.3673	-0.3553	1.0	.
H26B	H	1.2725	0.3514	-0.2754	1.0	.
H26C	H	1.2249	0.4320	-0.3538	1.0	.
C27	C	1.1833(5)	0.3306(3)	-0.4587(2)	1.0	.
H27A	H	1.1274	0.3922	-0.4778	1.0	.
H27B	H	1.1230	0.2868	-0.4775	1.0	.
H27C	H	1.3023	0.3301	-0.4800	1.0	.
C28	C	0.7979(4)	0.3905(2)	-0.34596(18)	1.0	.
H28	H	0.6953	0.3749	-0.3084	1.0	.
C29	C	0.8584(5)	0.4775(2)	-0.3305(2)	1.0	.
H29A	H	0.9491	0.5010	-0.3709	1.0	.
H29B	H	0.9026	0.4630	-0.2761	1.0	.
H29C	H	0.7622	0.5239	-0.3346	1.0	.
C30	C	0.7337(4)	0.4112(2)	-0.4319(2)	1.0	.
H30A	H	0.6440	0.4614	-0.4394	1.0	.
H30B	H	0.6873	0.3565	-0.4398	1.0	.
H30C	H	0.8288	0.4290	-0.4716	1.0	.
C31	C	0.8663(4)	0.1854(2)	-0.33942(19)	1.0	.
H31	H	0.8510	0.1992	-0.3990	1.0	.
C32	C	0.9884(5)	0.0984(2)	-0.3157(2)	1.0	.
H32A	H	1.0082	0.0843	-0.2577	1.0	.
H32B	H	1.0974	0.1087	-0.3469	1.0	.
H32C	H	0.9371	0.0470	-0.3273	1.0	.
C33	C	0.6904(4)	0.1687(2)	-0.2959(2)	1.0	.
H33A	H	0.6489	0.1135	-0.3052	1.0	.
H33B	H	0.6101	0.2214	-0.3170	1.0	.
H33C	H	0.6999	0.1605	-0.2376	1.0	.
C34	C	0.8290(4)	0.17069(19)	0.20416(18)	1.0	.
C35	C	0.7554(4)	0.1722(2)	0.26795(18)	1.0	.
C36	C	0.6148(4)	0.3171(2)	0.35024(18)	1.0	.
H36	H	0.5246	0.3315	0.3902	1.0	.
C37	C	0.5867(5)	0.3877(2)	0.2688(2)	1.0	.
H37A	H	0.5948	0.4495	0.2753	1.0	.
H37B	H	0.4732	0.3830	0.2507	1.0	.
H37C	H	0.6742	0.3758	0.2284	1.0	.
C38	C	0.7879(4)	0.3277(2)	0.3807(2)	1.0	.
H38A	H	0.8792	0.3150	0.3422	1.0	.
H38B	H	0.8036	0.2844	0.4338	1.0	.
H38C	H	0.7921	0.3904	0.3855	1.0	.
C39	C	0.6123(4)	0.1087(2)	0.44370(18)	1.0	.
H39	H	0.5503	0.0552	0.4404	1.0	.
C40	C	0.5255(4)	0.1430(2)	0.51481(18)	1.0	.
H40A	H	0.5375	0.0945	0.5653	1.0	.
H40B	H	0.4040	0.1592	0.5052	1.0	.
H40C	H	0.5799	0.1970	0.5192	1.0	.
C41	C	0.7972(5)	0.0725(2)	0.4624(2)	1.0	.
H41A	H	0.8607	0.1218	0.4706	1.0	.
H41B	H	0.8512	0.0506	0.4170	1.0	.
H41C	H	0.7978	0.0219	0.5117	1.0	.
C42	C	0.3799(4)	0.1918(2)	0.29765(19)	1.0	.
H42	H	0.3758	0.2412	0.2458	1.0	.
C43	C	0.3651(5)	0.1013(3)	0.2757(2)	1.0	.
H43A	H	0.3648	0.0509	0.3252	1.0	.
H43B	H	0.4624	0.0906	0.2394	1.0	.
H43C	H	0.2585	0.1044	0.2483	1.0	.
C44	C	0.2250(4)	0.2117(3)	0.3508(2)	1.0	.
H44A	H	0.1203	0.2120	0.3228	1.0	.
H44B	H	0.2318	0.2716	0.3614	1.0	.
H44C	H	0.2233	0.1642	0.4022	1.0	.
C45	C	0.5667(7)	-0.2072(4)	-0.0503(4)	1.0	1
N1	N	0.5207(7)	-0.2578(4)	-0.0848(3)	1.0	1
C46	C	0.5364(8)	-0.2546(4)	0.1217(4)	1.0	1
N2	N	0.4884(8)	-0.3259(4)	0.1572(3)	1.0	1
