data_k06346_config-1
loop_
 _symmetry_equiv_pos_as_xyz
'x, y, z'
'-x, -y, -z'

_cell_length_a	8.3039(2)
_cell_length_b	10.6399(3)
_cell_length_c	11.1645(4)
_cell_angle_alpha	97.4821(11)
_cell_angle_beta	99.4733(11)
_cell_angle_gamma	95.1998(12)
loop_
 _atom_site_label
 _atom_site_type_symbol
 _atom_site_fract_x
 _atom_site_fract_y
 _atom_site_fract_z
 _atom_site_occupancy
 _atom_site_disorder_group
Si1	Si	0.33064(10)	0.94407(7)	0.25853(7)	1.0	.
C1	C	0.4614(3)	0.6086(2)	0.4455(2)	1.0	.
C2	C	0.6005(3)	0.5494(2)	0.4210(2)	1.0	.
C3	C	0.698(3)	0.596(4)	0.338(3)	1.0	1
H3	H	0.6685	0.6660	0.2981	1.0	1
C4	C	0.832(3)	0.539(3)	0.317(4)	1.0	1
S5	S	0.9606(2)	0.58988(16)	0.22072(15)	1.0	1
C6	C	1.064(3)	0.463(3)	0.236(3)	1.0	1
C7	C	1.0122(9)	0.3864(6)	0.3142(6)	1.0	1
H7	H	1.0645	0.3140	0.3337	1.0	1
C8	C	0.867(4)	0.426(3)	0.367(3)	1.0	1
C9	C	0.771(4)	0.375(5)	0.446(3)	1.0	1
H9	H	0.7952	0.2987	0.4779	1.0	1
C10	C	0.6388(3)	0.4371(2)	0.4758(2)	1.0	.
C11	C	0.4192(3)	0.7161(2)	0.3853(2)	1.0	.
C12	C	0.3818(3)	0.8033(3)	0.3311(3)	1.0	.
C13	C	0.1466(4)	1.0045(3)	0.3135(3)	1.0	.
H13A	H	0.1029	1.0645	0.2590	1.0	.
H13B	H	0.0606	0.9315	0.3049	1.0	.
C14	C	0.1761(5)	1.0710(4)	0.4442(3)	1.0	.
H14A	H	0.2103	1.0107	0.5001	1.0	.
H14B	H	0.0746	1.1030	0.4627	1.0	.
H14C	H	0.2627	1.1426	0.4549	1.0	.
C15	C	0.5146(4)	1.0679(3)	0.3077(3)	1.0	.
H15A	H	0.4841	1.1502	0.2840	1.0	.
H15B	H	0.5454	1.0797	0.3983	1.0	.
C16	C	0.6637(4)	1.0337(3)	0.2518(3)	1.0	.
H16A	H	0.6893	0.9490	0.2689	1.0	.
H16B	H	0.7582	1.0969	0.2877	1.0	.
H16C	H	0.6392	1.0332	0.1628	1.0	.
C17	C	0.2894(5)	0.9051(4)	0.0883(3)	1.0	.
H17A	H	0.2677	0.9842	0.0537	1.0	1
H17B	H	0.3905	0.8775	0.0619	1.0	1
C18	C	0.1504(6)	0.8048(5)	0.0332(4)	1.0	1
H18A	H	0.1770	0.7225	0.0566	1.0	1
H18B	H	0.1321	0.7990	-0.0564	1.0	1
H18C	H	0.0507	0.8272	0.0632	1.0	1
C19	C	1.2034(4)	0.4512(3)	0.1631(3)	1.0	1
H19A	H	1.1578	0.4474	0.0748	1.0	1
H19B	H	1.2827	0.5292	0.1881	1.0	1
C20	C	1.2961(4)	0.3354(3)	0.1793(3)	1.0	1
H20A	H	1.2197	0.2566	0.1485	1.0	1
H20B	H	1.3371	0.3357	0.2678	1.0	1
C21	C	1.4462(5)	0.3347(4)	0.1081(4)	1.0	1
H21A	H	1.5207	0.4148	0.1367	1.0	1
H21B	H	1.5088	0.2626	0.1268	1.0	1
C22	C	1.3894(6)	0.3225(4)	-0.0267(4)	1.0	1
H22A	H	1.3144	0.2438	-0.0549	1.0	1
H22B	H	1.4844	0.3197	-0.0684	1.0	1
H22C	H	1.3320	0.3959	-0.0457	1.0	1
