data_k13158u_config-0
loop_
 _symmetry_equiv_pos_as_xyz
'x, y, z'
'-x, -y, -z'

_cell_length_a	11.2921(1)
_cell_length_b	11.3198(1)
_cell_length_c	17.3512(2)
_cell_angle_alpha	108.9246(5)
_cell_angle_beta	95.1666(5)
_cell_angle_gamma	91.8053(6)
loop_
 _atom_site_label
 _atom_site_type_symbol
 _atom_site_fract_x
 _atom_site_fract_y
 _atom_site_fract_z
 _atom_site_occupancy
 _atom_site_disorder_group
Si1	Si	0.28403(5)	0.33832(6)	0.87068(3)	1.0	.
Si2	Si	0.40740(5)	0.33568(5)	0.20704(3)	1.0	.
C1	C	0.35668(16)	0.36346(17)	0.62653(11)	1.0	.
C2	C	0.44409(16)	0.29042(17)	0.58258(11)	1.0	.
C3	C	0.50854(16)	0.20655(17)	0.61172(11)	1.0	.
H3	H	0.4947	0.2006	0.6636	1.0	.
C4	C	0.59151(16)	0.13195(17)	0.56802(11)	1.0	.
C5	C	0.65288(18)	0.04164(18)	0.59669(12)	1.0	.
C6	C	0.73321(19)	-0.0274(2)	0.55047(13)	1.0	.
H6	H	0.7737	-0.0869	0.5692	1.0	.
C7	C	0.75858(19)	-0.0133(2)	0.47505(13)	1.0	.
H7	H	0.8164	-0.0629	0.4454	1.0	.
C8	C	0.70301(18)	0.06836(18)	0.44405(12)	1.0	.
C9	C	0.61565(17)	0.14407(17)	0.49027(12)	1.0	.
C10	C	0.55287(16)	0.22727(17)	0.46152(11)	1.0	.
H10	H	0.5699	0.2362	0.4110	1.0	.
C11	C	0.46524(16)	0.29893(17)	0.50388(11)	1.0	.
C12	C	0.39553(16)	0.37633(17)	0.47029(11)	1.0	.
C13	C	0.30790(16)	0.44858(17)	0.51427(11)	1.0	.
C14	C	0.23693(17)	0.52486(17)	0.48143(11)	1.0	.
H14	H	0.2493	0.5285	0.4288	1.0	.
C15	C	0.14964(17)	0.59482(17)	0.52324(12)	1.0	.
C16	C	0.07636(18)	0.67124(19)	0.48822(12)	1.0	.
C17	C	-0.0092(2)	0.7349(2)	0.53200(14)	1.0	.
H17	H	-0.0586	0.7841	0.5091	1.0	.
C18	C	-0.02676(19)	0.7298(2)	0.61097(14)	1.0	.
H18	H	-0.0880	0.7754	0.6391	1.0	.
C19	C	0.04072(18)	0.66215(19)	0.64766(13)	1.0	.
C20	C	0.13146(17)	0.58954(18)	0.60364(12)	1.0	.
C21	C	0.20133(17)	0.51541(17)	0.63611(12)	1.0	.
H21	H	0.1899	0.5136	0.6893	1.0	.
C22	C	0.28888(16)	0.44238(17)	0.59355(11)	1.0	.
C23	C	0.33450(17)	0.35556(18)	0.70499(12)	1.0	.
C24	C	0.31463(18)	0.35147(19)	0.77160(12)	1.0	.
C25	C	0.2294(2)	0.4885(2)	0.93562(14)	1.0	.
H25A	H	0.2144	0.4794	0.9888	1.0	.
H25B	H	0.2940	0.5548	0.9468	1.0	.
C26	C	0.1188(3)	0.5323(2)	0.90151(16)	1.0	.
H26A	H	0.0543	0.4655	0.8892	1.0	.
H26B	H	0.1341	0.5438	0.8490	1.0	.
C27	C	0.0747(3)	0.6531(3)	0.95645(18)	1.0	.
H27A	H	0.0579	0.6429	1.0085	1.0	.
H27B	H	0.0018	0.6729	0.9293	1.0	.
H27C	H	0.1360	0.7212	0.9670	1.0	.
C28	C	0.4269(2)	0.3053(2)	0.92149(13)	1.0	.
H28A	H	0.4821	0.3809	0.9376	1.0	.
H28B	H	0.4100	0.2888	0.9722	1.0	.
C29	C	0.4885(2)	0.1953(2)	0.86868(15)	1.0	.
H29A	H	0.5126	0.2155	0.8207	1.0	.
H29B	H	0.4306	0.1217	0.8480	1.0	.
C30	C	0.5977(3)	0.1606(3)	0.91254(16)	1.0	.
H30A	H	0.6531	0.2346	0.9369	1.0	.
H30B	H	0.6370	0.0950	0.8732	1.0	.
H30C	H	0.5733	0.1299	0.9558	1.0	.
C31	C	0.1705(2)	0.2060(2)	0.84996(16)	1.0	.
H31A	H	0.2131	0.1283	0.8406	1.0	.
H31B	H	0.1305	0.2187	0.9003	1.0	.
C32	C	0.0760(2)	0.1844(3)	0.78028(19)	1.0	.
H32A	H	0.1146	0.1675	0.7291	1.0	.
H32B	H	0.0337	0.2621	0.7882	1.0	.
C33	C	-0.0158(3)	0.0761(3)	0.7698(2)	1.0	.
H33A	H	0.0252	-0.0010	0.7633	1.0	.
H33B	H	-0.0718	0.0652	0.7211	1.0	.
H33C	H	-0.0594	0.0950	0.8183	1.0	.
C34	C	0.40959(17)	0.37496(17)	0.38888(12)	1.0	.
C35	C	0.41790(19)	0.36755(19)	0.31846(12)	1.0	.
C36	C	0.36317(19)	0.4788(2)	0.18403(13)	1.0	.
H36A	H	0.4283	0.5449	0.2073	1.0	.
H36B	H	0.3540	0.4596	0.1239	1.0	.
C37	C	0.2493(3)	0.5289(3)	0.21697(19)	1.0	.
H37A	H	0.1838	0.4636	0.1920	1.0	.
H37B	H	0.2574	0.5443	0.2768	1.0	.
C38	C	0.2145(3)	0.6466(2)	0.20213(19)	1.0	.
H38A	H	0.2813	0.7099	0.2220	1.0	.
H38B	H	0.1455	0.6775	0.2314	1.0	.
H38C	H	0.1939	0.6295	0.1433	1.0	.
C39	C	0.55170(19)	0.2864(2)	0.16653(13)	1.0	.
H39A	H	0.5394	0.2608	0.1060	1.0	.
H39B	H	0.6095	0.3601	0.1858	1.0	.
C40	C	0.6062(3)	0.1828(3)	0.1893(2)	1.0	.
H40A	H	0.5427	0.1165	0.1822	1.0	.
H40B	H	0.6359	0.2151	0.2483	1.0	.
C41	C	0.7066(3)	0.1239(3)	0.1424(2)	1.0	.
H41A	H	0.6743	0.0665	0.0885	1.0	.
H41B	H	0.7518	0.0773	0.1726	1.0	.
H41C	H	0.7594	0.1893	0.1355	1.0	.
C42	C	0.28839(19)	0.2063(2)	0.16491(12)	1.0	.
H42A	H	0.3153	0.1329	0.1793	1.0	.
H42B	H	0.2164	0.2331	0.1929	1.0	.
C43	C	0.2527(2)	0.1639(2)	0.07216(14)	1.0	.
H43A	H	0.2312	0.2377	0.0564	1.0	.
H43B	H	0.3222	0.1293	0.0435	1.0	.
C44	C	0.1489(2)	0.0661(2)	0.04362(16)	1.0	.
H44A	H	0.1698	-0.0078	0.0584	1.0	.
H44B	H	0.1312	0.0422	-0.0160	1.0	.
H44C	H	0.0787	0.1007	0.0701	1.0	.
C45	C	0.6278(2)	0.0219(2)	0.67552(13)	1.0	.
H45A	H	0.6690	-0.0503	0.6810	1.0	.
H45B	H	0.5418	0.0065	0.6751	1.0	.
H45C	H	0.6562	0.0967	0.7218	1.0	.
C46	C	0.72944(19)	0.0793(2)	0.36293(13)	1.0	.
H46A	H	0.7958	0.0282	0.3431	1.0	.
H46B	H	0.7509	0.1670	0.3698	1.0	.
H46C	H	0.6587	0.0499	0.3231	1.0	.
C47	C	0.0952(2)	0.6807(2)	0.40611(13)	1.0	.
H47A	H	0.0363	0.7337	0.3914	1.0	.
H47B	H	0.0861	0.5970	0.3649	1.0	.
H47C	H	0.1756	0.7176	0.4082	1.0	.
C48	C	0.0219(2)	0.6616(2)	0.73240(14)	1.0	.
H48A	H	-0.0386	0.7199	0.7544	1.0	.
H48B	H	0.0970	0.6876	0.7681	1.0	.
H48C	H	-0.0049	0.5771	0.7298	1.0	.
