data_k13167u_config-0
loop_
 _symmetry_equiv_pos_as_xyz
'x, y, z'
'-x, -y, -z'

_cell_length_a	7.2982(1)
_cell_length_b	15.6547(2)
_cell_length_c	18.0888(2)
_cell_angle_alpha	86.1468(5)
_cell_angle_beta	87.6238(5)
_cell_angle_gamma	89.9853(5)
loop_
 _atom_site_label
 _atom_site_type_symbol
 _atom_site_fract_x
 _atom_site_fract_y
 _atom_site_fract_z
 _atom_site_occupancy
 _atom_site_disorder_group
Si1A	Si	-0.02751(8)	-0.03808(4)	0.82562(3)	1.0	.
C1A	C	0.0088(3)	-0.00744(12)	0.57824(10)	1.0	.
C2A	C	0.1522(3)	0.03497(11)	0.53532(10)	1.0	.
C3A	C	0.3059(3)	0.06937(12)	0.56779(11)	1.0	.
H3A	H	0.3119	0.0648	0.6203	1.0	.
C4A	C	0.4489(3)	0.10968(12)	0.52586(11)	1.0	.
C5A	C	0.6071(3)	0.14332(12)	0.56007(12)	1.0	.
C6A	C	0.7419(3)	0.18205(13)	0.51501(13)	1.0	.
H6A	H	0.8464	0.2041	0.5369	1.0	.
C7A	C	0.7316(3)	0.19055(13)	0.43684(12)	1.0	.
H7A	H	0.8293	0.2179	0.4081	1.0	.
C8A	C	0.5850(3)	0.16054(12)	0.40169(12)	1.0	.
C9A	C	0.4392(3)	0.11842(12)	0.44613(11)	1.0	.
C10A	C	0.2870(3)	0.08538(12)	0.41381(11)	1.0	.
H10A	H	0.2798	0.0917	0.3614	1.0	.
C11A	C	0.1429(3)	0.04284(11)	0.45581(10)	1.0	.
C12A	C	0.0129(3)	-0.01463(12)	0.65746(11)	1.0	.
C13A	C	0.0046(3)	-0.02141(13)	0.72476(11)	1.0	.
C14A	C	-0.2833(3)	-0.04481(17)	0.84426(12)	1.0	.
H14A	H	-0.3395	0.0086	0.8233	1.0	.
H14B	H	-0.3317	-0.0928	0.8178	1.0	.
C15A	C	-0.3422(3)	-0.05765(16)	0.92468(13)	1.0	.
H15A	H	-0.3192	-0.0122	0.9553	1.0	.
C16A	C	-0.4227(4)	-0.12629(19)	0.95612(15)	1.0	.
H16A	H	-0.4482	-0.1732	0.9275	1.0	.
H16B	H	-0.4556	-0.1292	1.0076	1.0	.
C17A	C	0.0889(3)	-0.14074(13)	0.85428(12)	1.0	.
H17A	H	0.2164	-0.1375	0.8318	1.0	.
C18A	C	-0.0084(4)	-0.21664(15)	0.82104(14)	1.0	.
H18A	H	0.0619	-0.2692	0.8309	1.0	.
H18B	H	-0.0165	-0.2049	0.7674	1.0	.
H18C	H	-0.1321	-0.2237	0.8438	1.0	.
C19A	C	0.1053(3)	-0.15662(15)	0.93846(12)	1.0	.
H19A	H	-0.0176	-0.1606	0.9625	1.0	.
H19B	H	0.1725	-0.1092	0.9575	1.0	.
H19C	H	0.1713	-0.2103	0.9491	1.0	.
C20A	C	0.0695(3)	0.05640(14)	0.86929(12)	1.0	.
H20A	H	0.0580	0.0445	0.9243	1.0	.
C21A	C	0.2735(4)	0.06651(17)	0.84777(15)	1.0	.
H21A	H	0.2893	0.0765	0.7938	1.0	.
H21B	H	0.3387	0.0143	0.8640	1.0	.
H21C	H	0.3234	0.1153	0.8717	1.0	.
C22A	C	-0.0372(5)	0.13898(16)	0.84985(16)	1.0	.
H22A	H	0.0186	0.1868	0.8731	1.0	.
H22B	H	-0.1650	0.1320	0.8681	1.0	.
H22C	H	-0.0332	0.1508	0.7959	1.0	.
C23A	C	0.6215(3)	0.13439(14)	0.64271(12)	1.0	.
H23A	H	0.7368	0.1601	0.6563	1.0	.
H23B	H	0.6191	0.0736	0.6596	1.0	.
H23C	H	0.5181	0.1637	0.6663	1.0	.
C24A	C	0.5774(3)	0.16967(14)	0.31858(12)	1.0	.
H24A	H	0.6846	0.2021	0.2978	1.0	.
H24B	H	0.4653	0.2001	0.3047	1.0	.
H24C	H	0.5773	0.1128	0.2991	1.0	.
Si1B	Si	0.42809(8)	0.45629(4)	0.82569(3)	1.0	.
C1B	C	0.4735(3)	0.49315(11)	0.57845(10)	1.0	.
C2B	C	0.6323(3)	0.45714(12)	0.54500(10)	1.0	.
C3B	C	0.7669(3)	0.41475(12)	0.58757(11)	1.0	.
H3B	H	0.7483	0.4091	0.6400	1.0	.
C4B	C	0.9250(3)	0.38103(12)	0.55606(11)	1.0	.
C5B	C	1.0622(3)	0.33917(12)	0.60110(11)	1.0	.
C6B	C	1.2153(3)	0.30840(12)	0.56690(12)	1.0	.
H6B	H	1.3056	0.2806	0.5962	1.0	.
C7B	C	1.2445(3)	0.31662(12)	0.48816(12)	1.0	.
H7B	H	1.3540	0.2945	0.4666	1.0	.
C8B	C	1.1201(3)	0.35517(12)	0.44327(11)	1.0	.
C9B	C	0.9543(3)	0.38932(12)	0.47639(11)	1.0	.
C10B	C	0.8201(3)	0.42998(12)	0.43382(10)	1.0	.
H10B	H	0.8378	0.4345	0.3814	1.0	.
C11B	C	0.6598(3)	0.46444(12)	0.46584(10)	1.0	.
C12B	C	0.4494(3)	0.48579(12)	0.65773(11)	1.0	.
C13B	C	0.4370(3)	0.47849(13)	0.72474(11)	1.0	.
C14B	C	0.1820(3)	0.43700(19)	0.85444(13)	1.0	.
H14C	H	0.1086	0.4837	0.8309	1.0	.
H14D	H	0.1432	0.3830	0.8342	1.0	.
C15B	C	0.1349(3)	0.43131(17)	0.93571(13)	1.0	.
H15B	H	0.1585	0.4803	0.9621	1.0	.
C16B	C	0.0647(4)	0.36503(19)	0.97319(16)	1.0	.
H16C	H	0.0390	0.3147	0.9489	1.0	.
H16D	H	0.0387	0.3667	1.0250	1.0	.
C17B	C	0.5186(4)	0.54996(15)	0.87191(13)	1.0	.
H17B	H	0.5091	0.5359	0.9267	1.0	.
C18B	C	0.4027(5)	0.63082(18)	0.85492(17)	1.0	.
H18D	H	0.4501	0.6782	0.8814	1.0	.
H18E	H	0.2748	0.6194	0.8712	1.0	.
H18F	H	0.4097	0.6462	0.8014	1.0	.
C19B	C	0.7214(4)	0.56786(19)	0.85024(16)	1.0	.
H19D	H	0.7358	0.5787	0.7963	1.0	.
H19E	H	0.7952	0.5181	0.8660	1.0	.
H19F	H	0.7625	0.6181	0.8746	1.0	.
C20B	C	0.5767(3)	0.35866(15)	0.84492(12)	1.0	.
H20B	H	0.7042	0.3745	0.8267	1.0	.
C21B	C	0.5852(4)	0.33255(18)	0.92758(14)	1.0	.
H21D	H	0.4622	0.3167	0.9477	1.0	.
H21E	H	0.6313	0.3807	0.9535	1.0	.
H21F	H	0.6677	0.2835	0.9346	1.0	.
C22B	C	0.5175(4)	0.28484(16)	0.80164(16)	1.0	.
H22D	H	0.6038	0.2373	0.8088	1.0	.
H22E	H	0.5161	0.3034	0.7488	1.0	.
H22F	H	0.3943	0.2660	0.8193	1.0	.
C23B	C	1.0333(3)	0.33037(14)	0.68414(11)	1.0	.
H23D	H	1.1364	0.2991	0.7060	1.0	.
H23E	H	0.9191	0.2989	0.6972	1.0	.
H23F	H	1.0256	0.3874	0.7034	1.0	.
C24B	C	1.1535(3)	0.36286(14)	0.36037(11)	1.0	.
H24D	H	1.2708	0.3360	0.3475	1.0	.
H24E	H	1.1571	0.4235	0.3429	1.0	.
H24F	H	1.0543	0.3341	0.3368	1.0	.
