data_x06135_config-1
loop_
 _symmetry_equiv_pos_as_xyz
'x, y, z'
'-x, y, -z+1/2'
'x+1/2, y+1/2, z'
'-x+1/2, y+1/2, -z+1/2'
'-x, -y, -z'
'x, -y, z-1/2'
'-x+1/2, -y+1/2, -z'
'x+1/2, -y+1/2, z-1/2'

_cell_length_a	34.850(2)
_cell_length_b	18.3704(11)
_cell_length_c	15.1624(9)
_cell_angle_alpha	90.00
_cell_angle_beta	98.201(3)
_cell_angle_gamma	90.00
loop_
 _atom_site_label
 _atom_site_type_symbol
 _atom_site_fract_x
 _atom_site_fract_y
 _atom_site_fract_z
 _atom_site_occupancy
 _atom_site_disorder_group
Si1A	Si	0.15945(3)	0.01992(7)	0.42069(7)	1.0	.
C1A	C	0.03823(10)	0.0063(2)	0.4802(2)	1.0	.
C2A	C	0.02210(10)	-0.0636(2)	0.4893(2)	1.0	.
C3A	C	0.04288(11)	-0.1273(2)	0.4783(3)	1.0	.
H3A	H	0.0686	-0.1236	0.4645	1.0	.
C4A	C	0.02708(11)	-0.1955(2)	0.4870(2)	1.0	.
C5A	C	0.04769(11)	-0.2611(2)	0.4761(3)	1.0	.
H5A	H	0.0734	-0.2580	0.4624	1.0	.
C6A	C	0.03211(11)	-0.3279(2)	0.4845(2)	1.0	.
C7A	C	-0.00671(11)	-0.3338(2)	0.5061(2)	1.0	.
C8A	C	-0.02697(11)	-0.2721(2)	0.5172(3)	1.0	.
H8A	H	-0.0525	-0.2764	0.5317	1.0	.
C9A	C	-0.01154(10)	-0.2020(2)	0.5079(2)	1.0	.
C10A	C	-0.03230(11)	-0.1390(2)	0.5182(2)	1.0	.
H10A	H	-0.0580	-0.1432	0.5317	1.0	.
C11A	C	-0.01678(10)	-0.0694(2)	0.5093(2)	1.0	.
C12A	C	0.07676(11)	0.0124(2)	0.4605(3)	1.0	.
C13A	C	0.10939(12)	0.0176(2)	0.4428(3)	1.0	.
C14A	C	0.16407(11)	0.0862(2)	0.3301(3)	1.0	.
H14A	H	0.1919	0.0862	0.3205	1.0	.
C15A	C	0.13960(13)	0.0710(3)	0.2392(3)	1.0	.
H15A	H	0.1505	0.0298	0.2086	1.0	.
H15B	H	0.1124	0.0596	0.2463	1.0	.
C16A	C	0.14188(13)	0.1414(3)	0.1876(3)	1.0	.
H16A	H	0.1173	0.1502	0.1477	1.0	.
H16B	H	0.1632	0.1390	0.1511	1.0	.
C17A	C	0.14936(14)	0.2023(3)	0.2569(3)	1.0	.
H17A	H	0.1275	0.2372	0.2505	1.0	.
H17B	H	0.1734	0.2289	0.2500	1.0	.
C18A	C	0.15327(15)	0.1641(3)	0.3477(3)	1.0	.
H18A	H	0.1737	0.1876	0.3904	1.0	.
H18B	H	0.1285	0.1661	0.3724	1.0	.
C19A	C	0.19008(11)	0.0473(3)	0.5269(3)	1.0	.
H19A	H	0.1908	0.0051	0.5687	1.0	.
C20A	C	0.17565(14)	0.1134(3)	0.5745(3)	1.0	.
H20A	H	0.1647	0.0974	0.6280	1.0	1
H20B	H	0.1551	0.1389	0.5342	1.0	1
C21A	C	0.2110(4)	0.1659(11)	0.6021(15)	1.0	1
H21A	H	0.2053	0.2145	0.5751	1.0	1
H21B	H	0.2156	0.1716	0.6677	1.0	1
C22A	C	0.2431(5)	0.1369(11)	0.5729(15)	1.0	1
H22A	H	0.2628	0.1255	0.6247	1.0	1
H22B	H	0.2543	0.1729	0.5352	1.0	1
C23A	C	0.23228(13)	0.0671(3)	0.5189(3)	1.0	.
H23A	H	0.2497	0.0268	0.5421	1.0	1
H23B	H	0.2351	0.0751	0.4555	1.0	1
C24A	C	0.17119(12)	-0.0740(3)	0.3878(3)	1.0	.
H24A	H	0.1971	-0.0740	0.3665	1.0	.
C25A	C	0.17137(16)	-0.1298(3)	0.4619(4)	1.0	.
H25A	H	0.1961	-0.1275	0.5030	1.0	.
H25B	H	0.1498	-0.1203	0.4964	1.0	.
C26A	C	0.1667(2)	-0.2023(4)	0.4185(5)	1.0	.
H26A	H	0.1923	-0.2248	0.4162	1.0	.
H26B	H	0.1514	-0.2349	0.4522	1.0	.
C27A	C	0.1463(2)	-0.1902(3)	0.3283(5)	1.0	.
H27A	H	0.1209	-0.2152	0.3207	1.0	.
H27B	H	0.1618	-0.2099	0.2837	1.0	.
C28A	C	0.14074(16)	-0.1086(3)	0.3155(4)	1.0	.
H28A	H	0.1142	-0.0941	0.3241	1.0	.
H28B	H	0.1453	-0.0937	0.2552	1.0	.
C29A	C	0.05438(13)	-0.3949(3)	0.4725(3)	1.0	.
H29A	H	0.0798	-0.3818	0.4567	1.0	.
H29B	H	0.0402	-0.4244	0.4246	1.0	.
H29C	H	0.0579	-0.4229	0.5280	1.0	.
C30A	C	-0.02444(12)	-0.4065(2)	0.5159(3)	1.0	.
H30A	H	-0.0506	-0.4003	0.5315	1.0	.
H30B	H	-0.0085	-0.4339	0.5631	1.0	.
H30C	H	-0.0259	-0.4332	0.4596	1.0	.
Si1B	Si	0.15938(3)	0.44445(7)	0.66675(7)	1.0	.
C1B	C	0.03813(10)	0.4396(2)	0.7282(2)	1.0	.
C2B	C	0.01951(10)	0.5061(2)	0.7394(2)	1.0	.
C3B	C	0.03749(11)	0.5729(2)	0.7290(2)	1.0	.
H3B	H	0.0631	0.5732	0.7145	1.0	.
C4B	C	0.01931(11)	0.6386(2)	0.7392(2)	1.0	.
C5B	C	0.03745(11)	0.7066(2)	0.7298(3)	1.0	.
H5B	H	0.0632	0.7072	0.7159	1.0	.
C6B	C	0.01954(11)	0.7707(2)	0.7399(3)	1.0	.
C7B	C	0.01884(11)	0.1085(2)	0.7353(3)	1.0	.
C8B	C	0.03626(11)	0.1727(2)	0.7226(3)	1.0	.
H8B	H	0.0611	0.1721	0.7035	1.0	.
C9B	C	0.01899(10)	0.2408(2)	0.7366(2)	1.0	.
C10B	C	0.03696(11)	0.3059(2)	0.7255(2)	1.0	.
H10B	H	0.0622	0.3056	0.7086	1.0	.
C11B	C	0.01930(10)	0.3729(2)	0.7382(2)	1.0	.
C12B	C	0.07669(11)	0.4400(2)	0.7076(2)	1.0	.
C13B	C	0.10933(11)	0.4419(2)	0.6908(3)	1.0	.
C14B	C	0.18677(11)	0.3757(3)	0.7401(3)	1.0	.
H14B	H	0.1736	0.3279	0.7264	1.0	.
C15B	C	0.18772(13)	0.3894(3)	0.8411(3)	1.0	.
H15C	H	0.1840	0.4417	0.8529	1.0	.
H15D	H	0.1671	0.3613	0.8642	1.0	.
C16B	C	0.22743(15)	0.3644(4)	0.8849(4)	1.0	.
H16C	H	0.2432	0.4066	0.9089	1.0	1
H16D	H	0.2249	0.3304	0.9344	1.0	1
C17B	C	0.24599(18)	0.3270(5)	0.8141(4)	1.0	1
H17C	H	0.2393	0.2746	0.8111	1.0	1
H17D	H	0.2745	0.3322	0.8255	1.0	1
C18B	C	0.22950(12)	0.3653(3)	0.7290(3)	1.0	.
H18C	H	0.2321	0.3349	0.6762	1.0	1
H18D	H	0.2425	0.4126	0.7233	1.0	1
C19B	C	0.15831(11)	0.4186(2)	0.5476(3)	1.0	.
H19B	H	0.1855	0.4193	0.5339	1.0	.
C20B	C	0.14096(13)	0.3438(3)	0.5217(3)	1.0	.
H20C	H	0.1595	0.3044	0.5426	1.0	.
H20D	H	0.1166	0.3360	0.5471	1.0	.
C21B	C	0.13318(14)	0.3461(3)	0.4201(3)	1.0	.
H21C	H	0.1559	0.3277	0.3945	1.0	.
H21D	H	0.1104	0.3157	0.3977	1.0	.
C22B	C	0.12550(16)	0.4254(3)	0.3950(3)	1.0	.
H22C	H	0.0982	0.4321	0.3676	1.0	.
H22D	H	0.1426	0.4414	0.3519	1.0	.
C23B	C	0.13388(12)	0.4690(3)	0.4813(3)	1.0	.
H23C	H	0.1095	0.4825	0.5034	1.0	.
H23D	H	0.1484	0.5140	0.4718	1.0	.
C24B	C	0.17834(11)	0.5381(3)	0.6889(3)	1.0	.
H24B	H	0.1847	0.5433	0.7550	1.0	.
C25B	C	0.21540(13)	0.5575(3)	0.6489(3)	1.0	.
H25C	H	0.2389	0.5418	0.6889	1.0	.
H25D	H	0.2152	0.5342	0.5899	1.0	.
C26B	C	0.21397(14)	0.6395(3)	0.6403(3)	1.0	.
H26C	H	0.2313	0.6571	0.5986	1.0	.
H26D	H	0.2212	0.6634	0.6989	1.0	.
C27B	C	0.17163(15)	0.6530(3)	0.6038(3)	1.0	.
H27C	H	0.1665	0.6426	0.5391	1.0	.
H27D	H	0.1642	0.7040	0.6141	1.0	.
C28B	C	0.14949(13)	0.5999(3)	0.6561(3)	1.0	.
H28C	H	0.1266	0.5800	0.6173	1.0	.
H28D	H	0.1405	0.6249	0.7073	1.0	.
C29B	C	0.03950(13)	0.8411(2)	0.7298(3)	1.0	.
H29D	H	0.0656	0.8318	0.7153	1.0	.
H29E	H	0.0414	0.8685	0.7857	1.0	.
H29F	H	0.0247	0.8694	0.6818	1.0	.
C30B	C	0.03798(12)	0.0377(2)	0.7201(3)	1.0	.
H30D	H	0.0616	0.0469	0.6935	1.0	.
H30E	H	0.0202	0.0074	0.6797	1.0	.
H30F	H	0.0448	0.0124	0.7771	1.0	.
