data_x10004_config-2
loop_
 _symmetry_equiv_pos_as_xyz
'x, y, z'
'-x, -y, -z'

_cell_length_a	9.2456(4)
_cell_length_b	14.0298(5)
_cell_length_c	20.5776(8)
_cell_angle_alpha	100.915(2)
_cell_angle_beta	102.571(2)
_cell_angle_gamma	102.647(2)
loop_
 _atom_site_label
 _atom_site_type_symbol
 _atom_site_fract_x
 _atom_site_fract_y
 _atom_site_fract_z
 _atom_site_occupancy
 _atom_site_disorder_group
Si1	Si	0.6723(3)	0.84693(17)	0.81419(11)	1.0	.
Si2	Si	0.5564(3)	0.62917(17)	0.22580(11)	1.0	.
Cl1	Cl	0.3378(2)	1.00985(14)	0.65185(9)	1.0	.
Cl2	Cl	0.1652(2)	1.12342(13)	0.55915(10)	1.0	.
Cl3	Cl	0.1109(2)	1.06390(14)	0.40109(10)	1.0	.
Cl4	Cl	0.2352(2)	0.89346(14)	0.33312(9)	1.0	.
Cl5	Cl	0.7861(2)	0.36990(13)	0.38117(9)	1.0	.
Cl6	Cl	0.9724(2)	0.26340(12)	0.47443(9)	1.0	.
Cl7	Cl	1.0327(2)	0.32642(14)	0.63243(10)	1.0	.
Cl8	Cl	0.9079(2)	0.49692(14)	0.70068(9)	1.0	.
C1	C	0.5935(8)	0.7222(5)	0.5887(4)	1.0	.
C2	C	0.5105(7)	0.7717(5)	0.5468(3)	1.0	.
C3	C	0.4540(8)	0.8495(5)	0.5763(3)	1.0	.
H3	H	0.4709	0.8681	0.6248	1.0	.
C4	C	0.3734(8)	0.9001(5)	0.5356(4)	1.0	.
C5	C	0.3115(8)	0.9789(5)	0.5637(4)	1.0	.
C6	C	0.2335(8)	1.0273(5)	0.5229(4)	1.0	.
C7	C	0.2091(8)	1.0003(5)	0.4506(4)	1.0	.
C8	C	0.2655(8)	0.9254(5)	0.4215(4)	1.0	.
C9	C	0.3476(8)	0.8718(5)	0.4613(4)	1.0	.
C10	C	0.4062(8)	0.7948(5)	0.4324(4)	1.0	.
H10	H	0.3920	0.7769	0.3840	1.0	.
C11	C	0.4861(8)	0.7438(5)	0.4742(4)	1.0	.
C12	C	0.5469(8)	0.6667(5)	0.4448(3)	1.0	.
C13	C	0.6253(8)	0.6148(5)	0.4870(4)	1.0	.
C14	C	0.6804(7)	0.5351(5)	0.4565(3)	1.0	.
H14	H	0.6623	0.5159	0.4080	1.0	.
C15	C	0.7614(8)	0.4851(5)	0.4981(4)	1.0	.
C16	C	0.8197(8)	0.4057(5)	0.4700(4)	1.0	.
C17	C	0.8995(8)	0.3580(5)	0.5092(4)	1.0	.
C18	C	0.9280(8)	0.3871(5)	0.5824(4)	1.0	.
C19	C	0.8730(8)	0.4624(5)	0.6126(4)	1.0	.
C20	C	0.7874(8)	0.5143(5)	0.5728(3)	1.0	.
C21	C	0.7309(7)	0.5915(5)	0.6003(3)	1.0	.
H21	H	0.7474	0.6104	0.6487	1.0	.
C22	C	0.6505(8)	0.6432(5)	0.5601(4)	1.0	.
C23	C	0.6252(8)	0.7561(6)	0.6620(4)	1.0	.
C24	C	0.6516(10)	0.7912(6)	0.7230(4)	1.0	.
C25	C	0.8182(11)	0.7999(7)	0.8694(4)	1.0	.
H25A	H	0.9228	0.8379	0.8705	1.0	.
H25B	H	0.8083	0.8140	0.9170	1.0	.
C26	C	0.8008(12)	0.6875(8)	0.8445(5)	1.0	.
H26A	H	0.8053	0.6725	0.7961	1.0	.
H26B	H	0.6987	0.6491	0.8460	1.0	.
C27	C	0.9269(12)	0.6525(8)	0.8882(6)	1.0	.
H27A	H	0.9238	0.5836	0.8641	1.0	.
H27B	H	1.0286	0.6975	0.8918	1.0	.
C28	C	0.9129(14)	0.6514(10)	0.9589(7)	1.0	.
H28A	H	0.9282	0.7205	0.9852	1.0	.
H28B	H	0.9910	0.6226	0.9819	1.0	.
H28C	H	0.8102	0.6105	0.9562	1.0	.
C29'	C	0.7472(11)	0.9867(7)	0.8307(5)	1.0	2
H29C	H	0.8608	1.0060	0.8483	1.0	2
H29D	H	0.7211	1.0066	0.7869	1.0	2
C30'	C	0.678(5)	1.046(3)	0.8849(14)	1.0	2
H30C	H	0.6940	1.1172	0.8820	1.0	2
H30D	H	0.5657	1.0151	0.8744	1.0	2
C31'	C	0.757(5)	1.042(3)	0.9570(15)	1.0	2
H31C	H	0.7339	0.9711	0.9597	1.0	2
H31D	H	0.8699	1.0668	0.9645	1.0	2
C32'	C	0.713(8)	1.103(5)	1.0139(19)	1.0	2
H32D	H	0.7700	1.0962	1.0581	1.0	2
H32E	H	0.6022	1.0776	1.0081	1.0	2
H32F	H	0.7376	1.1737	1.0125	1.0	2
C33	C	0.4740(10)	0.8036(6)	0.8245(4)	1.0	.
H33A	H	0.4433	0.7290	0.8139	1.0	.
H33B	H	0.4767	0.8292	0.8731	1.0	.
C34	C	0.3502(10)	0.8384(6)	0.7782(5)	1.0	.
H34A	H	0.3721	0.9127	0.7931	1.0	.
H34B	H	0.3560	0.8208	0.7301	1.0	.
C35	C	0.1914(11)	0.7909(7)	0.7813(5)	1.0	.
H35A	H	0.1845	0.8110	0.8291	1.0	.
H35B	H	0.1714	0.7166	0.7684	1.0	.
C36	C	0.0688(12)	0.8211(8)	0.7339(5)	1.0	.
H36A	H	0.0872	0.8946	0.7467	1.0	.
H36B	H	-0.0329	0.7887	0.7379	1.0	.
H36C	H	0.0730	0.7997	0.6863	1.0	.
C37	C	0.5375(9)	0.6460(5)	0.3723(4)	1.0	.
C38	C	0.5417(9)	0.6327(6)	0.3137(4)	1.0	.
C39	C	0.6196(11)	0.5156(6)	0.1936(4)	1.0	.
H39A	H	0.7282	0.5259	0.2188	1.0	.
H39B	H	0.5568	0.4564	0.2039	1.0	.
C40	C	0.6055(11)	0.4925(7)	0.1162(5)	1.0	.
H40A	H	0.4950	0.4738	0.0910	1.0	.
H40B	H	0.6567	0.5547	0.1051	1.0	.
C41	C	0.6734(12)	0.4098(7)	0.0906(5)	1.0	.
H41A	H	0.6197	0.3467	0.0998	1.0	.
H41B	H	0.7831	0.4272	0.1165	1.0	.
C42	C	0.6621(14)	0.3914(8)	0.0141(5)	1.0	.
H42A	H	0.5536	0.3706	-0.0122	1.0	.
H42B	H	0.7107	0.3380	0.0008	1.0	.
H42C	H	0.7148	0.4535	0.0044	1.0	.
C43	C	0.3621(11)	0.6260(7)	0.1744(4)	1.0	.
H43A	H	0.3665	0.6288	0.1271	1.0	.
H43B	H	0.2887	0.5613	0.1714	1.0	.
C44	C	0.3025(11)	0.7128(8)	0.2048(5)	1.0	.
H44A	H	0.3857	0.7762	0.2164	1.0	.
H44B	H	0.2803	0.7022	0.2482	1.0	.
C45	C	0.1582(12)	0.7264(8)	0.1588(5)	1.0	.
H45A	H	0.1365	0.7887	0.1811	1.0	.
H45B	H	0.1777	0.7345	0.1145	1.0	.
C46	C	0.0211(13)	0.6395(9)	0.1455(6)	1.0	.
H46A	H	0.0437	0.5771	0.1254	1.0	.
H46B	H	-0.0665	0.6493	0.1135	1.0	.
H46C	H	-0.0041	0.6347	0.1888	1.0	.
C47	C	0.7024(11)	0.7493(7)	0.2305(4)	1.0	.
H47A	H	0.6915	0.8041	0.2657	1.0	.
H47B	H	0.8066	0.7405	0.2466	1.0	.
C48	C	0.6920(12)	0.7826(7)	0.1642(5)	1.0	.
H48A	H	0.5872	0.7898	0.1472	1.0	.
H48B	H	0.7069	0.7292	0.1294	1.0	.
C49	C	0.8081(14)	0.8812(8)	0.1707(6)	1.0	.
H49A	H	0.7940	0.9351	0.2055	1.0	.
H49B	H	0.9134	0.8743	0.1870	1.0	.
C50	C	0.7927(14)	0.9117(9)	0.1036(7)	1.0	.
H50A	H	0.8219	0.8639	0.0710	1.0	.
H50B	H	0.8605	0.9796	0.1115	1.0	.
H50C	H	0.6858	0.9116	0.0846	1.0	.
