data_x10008_config-2
loop_
 _symmetry_equiv_pos_as_xyz
'x, y, z'
'-x, -y, -z'

_cell_length_a	8.8920(2)
_cell_length_b	14.3158(3)
_cell_length_c	17.0767(3)
_cell_angle_alpha	87.0210(10)
_cell_angle_beta	80.9000(10)
_cell_angle_gamma	83.5520(10)
loop_
 _atom_site_label
 _atom_site_type_symbol
 _atom_site_fract_x
 _atom_site_fract_y
 _atom_site_fract_z
 _atom_site_occupancy
 _atom_site_disorder_group
Si2	Si	0.40852(7)	0.14419(5)	0.88507(4)	1.0	.
Si1	Si	0.63169(8)	0.33110(5)	0.20158(4)	1.0	.
Cl1	Cl	1.09328(6)	0.14286(4)	0.36442(3)	1.0	.
Cl2	Cl	1.34324(6)	0.04788(4)	0.45915(3)	1.0	.
Cl3	Cl	1.26890(6)	0.01109(4)	0.64054(3)	1.0	.
Cl4	Cl	0.94896(6)	0.07986(4)	0.73244(3)	1.0	.
Cl5	Cl	-0.12291(6)	0.34975(4)	0.72485(3)	1.0	.
Cl6	Cl	-0.37450(6)	0.44313(4)	0.63084(3)	1.0	.
Cl7	Cl	-0.30845(6)	0.46732(4)	0.44771(3)	1.0	.
Cl8	Cl	0.01474(6)	0.40546(4)	0.35572(3)	1.0	.
C1	C	0.5151(2)	0.25830(15)	0.46022(13)	1.0	.
C2	C	0.6328(2)	0.21700(15)	0.50237(13)	1.0	.
C3	C	0.7822(3)	0.19124(16)	0.46347(13)	1.0	.
H3	H	0.8046	0.2019	0.4077	1.0	.
C4	C	0.8980(3)	0.15066(16)	0.50417(14)	1.0	.
C5	C	1.0506(3)	0.12256(16)	0.46545(13)	1.0	.
C6	C	1.1611(3)	0.08127(16)	0.50650(14)	1.0	.
C7	C	1.1272(3)	0.06586(16)	0.59101(14)	1.0	.
C8	C	0.9857(3)	0.09406(16)	0.63052(14)	1.0	.
C9	C	0.8640(3)	0.13604(16)	0.58940(14)	1.0	.
C10	C	0.7176(3)	0.16135(16)	0.62794(13)	1.0	.
H10	H	0.6960	0.1516	0.6839	1.0	.
C11	C	0.5992(2)	0.20112(15)	0.58678(13)	1.0	.
C12	C	0.4491(3)	0.22604(16)	0.62744(13)	1.0	.
C13	C	0.3325(3)	0.26808(15)	0.58538(13)	1.0	.
C14	C	0.1836(3)	0.29503(16)	0.62450(14)	1.0	.
H14	H	0.1614	0.2850	0.6804	1.0	.
C15	C	0.0683(3)	0.33576(15)	0.58374(14)	1.0	.
C16	C	-0.0836(3)	0.36538(16)	0.62306(14)	1.0	.
C17	C	-0.1951(3)	0.40537(16)	0.58209(14)	1.0	.
C18	C	-0.1635(3)	0.41819(15)	0.49734(14)	1.0	.
C19	C	-0.0217(3)	0.39137(16)	0.45778(14)	1.0	.
C20	C	0.1010(3)	0.35032(15)	0.49874(14)	1.0	.
C21	C	0.2479(2)	0.32460(15)	0.45972(13)	1.0	.
H21	H	0.2694	0.3346	0.4038	1.0	.
C22	C	0.3656(2)	0.28410(15)	0.50072(13)	1.0	.
C23	C	0.5484(3)	0.27538(16)	0.37621(14)	1.0	.
C24	C	0.5765(3)	0.29292(18)	0.30590(15)	1.0	.
C25'	C	0.447(3)	0.396(2)	0.1635(18)	1.0	2
H25C	H	0.4050	0.4499	0.1969	1.0	2
H25D	H	0.4734	0.4195	0.1081	1.0	2
C26'	C	0.329(3)	0.328(2)	0.1674(19)	1.0	2
H26C	H	0.2976	0.3086	0.2235	1.0	2
H26D	H	0.3753	0.2715	0.1383	1.0	2
C27'	C	0.187(5)	0.370(4)	0.132(5)	1.0	2
H27D	H	0.1058	0.3279	0.1463	1.0	2
H27E	H	0.2126	0.3758	0.0746	1.0	2
H27F	H	0.1512	0.4317	0.1541	1.0	2
C28	C	0.7831(3)	0.24193(19)	0.15309(15)	1.0	.
H28A	H	0.7336	0.1875	0.1398	1.0	.
H28B	H	0.8329	0.2699	0.1027	1.0	.
C29	C	0.9069(3)	0.2065(2)	0.20392(15)	1.0	.
H29A	H	0.9476	0.2612	0.2230	1.0	.
H29B	H	0.8597	0.1709	0.2510	1.0	.
C30	C	1.0394(3)	0.1435(2)	0.15933(17)	1.0	.
H30A	H	1.0005	0.0880	0.1417	1.0	.
H30B	H	1.1149	0.1236	0.1945	1.0	.
H30C	H	1.0878	0.1786	0.1131	1.0	.
C31	C	0.7078(3)	0.44746(18)	0.20440(15)	1.0	.
H31A	H	0.6242	0.4927	0.2300	1.0	.
H31B	H	0.7894	0.4400	0.2382	1.0	.
C32	C	0.7730(3)	0.4898(2)	0.12344(17)	1.0	.
H32A	H	0.8526	0.4436	0.0961	1.0	.
H32B	H	0.6901	0.5019	0.0906	1.0	.
C33	C	0.8419(4)	0.5805(2)	0.1299(2)	1.0	.
H33A	H	0.7632	0.6270	0.1561	1.0	.
H33B	H	0.8810	0.6046	0.0767	1.0	.
H33C	H	0.9261	0.5687	0.1610	1.0	.
C34	C	0.4185(2)	0.20591(16)	0.71086(14)	1.0	.
C35	C	0.4041(3)	0.18364(17)	0.78079(14)	1.0	.
C36	C	0.2191(3)	0.10188(18)	0.92631(15)	1.0	.
H36A	H	0.2068	0.0463	0.8967	1.0	.
H36B	H	0.2220	0.0805	0.9822	1.0	.
C37	C	0.0769(3)	0.17245(18)	0.92416(16)	1.0	.
H37A	H	0.0798	0.2241	0.9601	1.0	.
H37B	H	0.0785	0.2001	0.8697	1.0	.
C38	C	-0.0707(3)	0.12694(19)	0.94899(16)	1.0	.
H38A	H	-0.0773	0.0787	0.9114	1.0	.
H38B	H	-0.1585	0.1749	0.9493	1.0	.
H38C	H	-0.0714	0.0979	1.0023	1.0	.
C39	C	0.4613(3)	0.24554(18)	0.93659(15)	1.0	.
H39A	H	0.3686	0.2901	0.9509	1.0	.
H39B	H	0.4985	0.2219	0.9864	1.0	.
C40	C	0.5855(3)	0.29815(19)	0.88538(16)	1.0	.
H40A	H	0.6696	0.2516	0.8624	1.0	.
H40B	H	0.5412	0.3319	0.8409	1.0	.
C41	C	0.6517(3)	0.3684(2)	0.93069(17)	1.0	.
H41A	H	0.5700	0.4162	0.9521	1.0	.
H41B	H	0.7305	0.3988	0.8948	1.0	.
H41C	H	0.6974	0.3355	0.9744	1.0	.
C42	C	0.5649(3)	0.04496(18)	0.88940(15)	1.0	.
H42A	H	0.6576	0.0629	0.8543	1.0	.
H42B	H	0.5889	0.0396	0.9442	1.0	.
C43	C	0.5358(3)	-0.05273(18)	0.86645(15)	1.0	.
H43A	H	0.6192	-0.0994	0.8802	1.0	.
H43B	H	0.4386	-0.0697	0.8978	1.0	.
C44	C	0.5268(3)	-0.0579(2)	0.77885(16)	1.0	.
H44A	H	0.4392	-0.0156	0.7657	1.0	.
H44B	H	0.5141	-0.1225	0.7669	1.0	.
H44C	H	0.6213	-0.0391	0.7474	1.0	.
