data_x10013_config-0
loop_
 _symmetry_equiv_pos_as_xyz
'x, y, z'
'-x, -y, -z'

_cell_length_a	8.2102(2)
_cell_length_b	14.7226(4)
_cell_length_c	20.9185(5)
_cell_angle_alpha	82.407(1)
_cell_angle_beta	85.752(1)
_cell_angle_gamma	84.643(1)
loop_
 _atom_site_label
 _atom_site_type_symbol
 _atom_site_fract_x
 _atom_site_fract_y
 _atom_site_fract_z
 _atom_site_occupancy
 _atom_site_disorder_group
Si1A	Si	0.58547(6)	0.70792(4)	0.24055(2)	1.0	.
F1A	F	1.11294(13)	0.44842(8)	0.36319(6)	1.0	.
F2A	F	1.36486(13)	0.34414(8)	0.42173(6)	1.0	.
F3A	F	1.32443(13)	0.26056(8)	0.54223(6)	1.0	.
F4A	F	1.03205(13)	0.28201(8)	0.61221(5)	1.0	.
C1A	C	0.5219(2)	0.54473(13)	0.43562(9)	1.0	.
C2A	C	0.6526(2)	0.48700(13)	0.46367(9)	1.0	.
C3A	C	0.8050(2)	0.47367(13)	0.42909(9)	1.0	.
H3A	H	0.8191	0.5020	0.3858	1.0	.
C4A	C	0.9345(2)	0.41987(13)	0.45738(9)	1.0	.
C5A	C	1.0911(2)	0.40713(14)	0.42391(10)	1.0	.
C6A	C	1.2168(2)	0.35547(14)	0.45262(10)	1.0	.
C7A	C	1.1957(2)	0.31225(13)	0.51704(10)	1.0	.
C8A	C	1.0505(2)	0.32279(13)	0.55086(9)	1.0	.
C9A	C	0.9134(2)	0.37664(13)	0.52296(9)	1.0	.
C10A	C	0.7633(2)	0.38733(13)	0.55683(9)	1.0	.
H10A	H	0.7492	0.3572	0.5997	1.0	.
C11A	C	0.6307(2)	0.44238(12)	0.52876(9)	1.0	.
C12A	C	0.5438(2)	0.59238(13)	0.37209(9)	1.0	.
C13A	C	0.5602(2)	0.63615(14)	0.31918(10)	1.0	.
C14A	C	0.3772(2)	0.76385(15)	0.21867(10)	1.0	.
H14A	H	0.3942	0.8086	0.1789	1.0	.
C15A	C	0.2685(3)	0.69263(18)	0.20185(13)	1.0	.
H15A	H	0.2538	0.6458	0.2393	1.0	.
H15B	H	0.3206	0.6633	0.1652	1.0	.
H15C	H	0.1615	0.7231	0.1903	1.0	.
C16A	C	0.2883(3)	0.81760(17)	0.27070(11)	1.0	.
H16A	H	0.1812	0.8441	0.2563	1.0	.
H16B	H	0.3538	0.8671	0.2782	1.0	.
H16C	H	0.2729	0.7761	0.3109	1.0	.
C17A	C	0.7415(2)	0.79101(14)	0.24919(10)	1.0	.
H17A	H	0.8426	0.7525	0.2631	1.0	.
C18A	C	0.6969(3)	0.85553(16)	0.30051(11)	1.0	.
H18A	H	0.7942	0.8852	0.3084	1.0	.
H18B	H	0.6568	0.8202	0.3407	1.0	.
H18C	H	0.6111	0.9026	0.2853	1.0	.
C19A	C	0.7896(3)	0.84525(18)	0.18463(11)	1.0	.
H19A	H	0.6941	0.8842	0.1685	1.0	.
H19B	H	0.8286	0.8026	0.1535	1.0	.
H19C	H	0.8770	0.8840	0.1902	1.0	.
C20A	C	0.6651(2)	0.63130(14)	0.17814(10)	1.0	.
H20A	H	0.5901	0.5821	0.1793	1.0	.
H20B	H	0.6611	0.6680	0.1350	1.0	.
C21A	C	0.8395(2)	0.58615(15)	0.18542(10)	1.0	.
H21A	H	0.9142	0.6343	0.1882	1.0	.
H21B	H	0.8421	0.5438	0.2263	1.0	.
C22A	C	0.9010(2)	0.53267(14)	0.12929(10)	1.0	.
H22A	H	0.8277	0.4834	0.1276	1.0	.
H22B	H	0.8938	0.5748	0.0884	1.0	.
C23A	C	1.0764(2)	0.48946(15)	0.13374(10)	1.0	.
H23A	H	1.1468	0.5360	0.1439	1.0	.
H23B	H	1.0796	0.4384	0.1697	1.0	.
C24A	C	1.1456(2)	0.45281(15)	0.07178(10)	1.0	.
H24A	H	1.1419	0.5041	0.0360	1.0	.
H24B	H	1.0743	0.4067	0.0616	1.0	.
C25A	C	1.3205(3)	0.40893(16)	0.07464(10)	1.0	.
H25A	H	1.3894	0.4520	0.0904	1.0	.
H25B	H	1.3219	0.3526	0.1062	1.0	.
C26A	C	1.3949(3)	0.38410(16)	0.00987(11)	1.0	.
H26A	H	1.3245	0.3422	-0.0063	1.0	.
H26B	H	1.3958	0.4407	-0.0214	1.0	.
C27A	C	1.5680(3)	0.3384(2)	0.01280(13)	1.0	.
H27A	H	1.6381	0.3788	0.0297	1.0	.
H27B	H	1.6105	0.3269	-0.0307	1.0	.
H27C	H	1.5672	0.2799	0.0413	1.0	.
Si1B	Si	0.34308(6)	-0.19016(4)	0.76088(2)	1.0	.
F1B	F	-0.12442(13)	0.06122(8)	0.62439(5)	1.0	.
F2B	F	-0.36658(13)	0.16800(8)	0.56137(6)	1.0	.
F3B	F	-0.30905(13)	0.25080(8)	0.44092(6)	1.0	.
F4B	F	-0.01000(13)	0.22548(8)	0.37689(5)	1.0	.
C1B	C	0.4694(2)	-0.04222(13)	0.56479(9)	1.0	.
C2B	C	0.3442(2)	0.01580(12)	0.53271(9)	1.0	.
C3B	C	0.1880(2)	0.03173(13)	0.56407(9)	1.0	.
H3B	H	0.1677	0.0046	0.6074	1.0	.
C4B	C	0.0641(2)	0.08605(13)	0.53295(9)	1.0	.
C5B	C	-0.0953(2)	0.10139(13)	0.56363(9)	1.0	.
C6B	C	-0.2161(2)	0.15429(13)	0.53273(10)	1.0	.
C7B	C	-0.1864(2)	0.19680(13)	0.46855(10)	1.0	.
C8B	C	-0.0378(2)	0.18396(13)	0.43733(9)	1.0	.
C9B	C	0.0941(2)	0.12793(13)	0.46752(9)	1.0	.
C10B	C	0.2472(2)	0.11379(13)	0.43628(9)	1.0	.
H10B	H	0.2670	0.1421	0.3932	1.0	.
C11B	C	0.3744(2)	0.05781(12)	0.46747(9)	1.0	.
C12B	C	0.4353(2)	-0.08612(13)	0.62885(9)	1.0	.
C13B	C	0.4016(2)	-0.12450(13)	0.68228(9)	1.0	.
C14B	C	0.4575(3)	-0.30764(15)	0.76349(10)	1.0	.
H14B	H	0.4511	-0.3371	0.8094	1.0	.
C15B	C	0.3799(3)	-0.36998(16)	0.72304(13)	1.0	.
H15D	H	0.3762	-0.3405	0.6783	1.0	.
H15E	H	0.2683	-0.3800	0.7409	1.0	.
H15F	H	0.4456	-0.4292	0.7241	1.0	.
C16B	C	0.6394(3)	-0.30305(17)	0.74191(11)	1.0	.
H16D	H	0.6945	-0.3653	0.7457	1.0	.
H16E	H	0.6902	-0.2660	0.7694	1.0	.
H16F	H	0.6500	-0.2748	0.6968	1.0	.
C17B	C	0.1148(2)	-0.19847(15)	0.76567(10)	1.0	.
H17B	H	0.0915	-0.2395	0.7335	1.0	.
C18B	C	0.0568(3)	-0.24341(17)	0.83254(10)	1.0	.
H18D	H	0.0740	-0.2036	0.8650	1.0	.
H18E	H	0.1192	-0.3031	0.8424	1.0	.
H18F	H	-0.0601	-0.2524	0.8330	1.0	.
C19B	C	0.0182(3)	-0.10515(16)	0.74831(11)	1.0	.
H19D	H	-0.0989	-0.1138	0.7493	1.0	.
H19E	H	0.0554	-0.0783	0.7049	1.0	.
H19F	H	0.0365	-0.0638	0.7796	1.0	.
C20B	C	0.3882(2)	-0.12685(16)	0.82877(10)	1.0	.
H20C	H	0.3078	-0.0724	0.8287	1.0	.
H20D	H	0.3658	-0.1672	0.8696	1.0	.
C21B	C	0.5583(2)	-0.09339(15)	0.83142(10)	1.0	.
H21C	H	0.6415	-0.1466	0.8314	1.0	.
H21D	H	0.5815	-0.0500	0.7921	1.0	.
C22B	C	0.5739(2)	-0.04593(16)	0.89076(10)	1.0	.
H22C	H	0.5631	-0.0915	0.9298	1.0	.
H22D	H	0.4823	0.0025	0.8935	1.0	.
C23B	C	0.7350(2)	-0.00246(15)	0.89071(10)	1.0	.
H23C	H	0.7484	0.0408	0.8506	1.0	.
H23D	H	0.8263	-0.0514	0.8902	1.0	.
C24B	C	0.7478(2)	0.04925(15)	0.94863(10)	1.0	.
H24C	H	0.6480	0.0917	0.9533	1.0	.
H24D	H	0.7524	0.0045	0.9883	1.0	.
C25B	C	0.8972(3)	0.10391(15)	0.94256(10)	1.0	.
H25C	H	0.8877	0.1518	0.9047	1.0	.
H25D	H	0.9958	0.0622	0.9340	1.0	.
C26B	C	0.9217(3)	0.15011(15)	1.00155(11)	1.0	.
H26C	H	0.9386	0.1023	1.0390	1.0	.
H26D	H	0.8211	0.1894	1.0117	1.0	.
C27B	C	1.0669(3)	0.20862(18)	0.99191(12)	1.0	.
H27D	H	1.1668	0.1702	0.9814	1.0	.
H27E	H	1.0792	0.2351	1.0317	1.0	.
H27F	H	1.0481	0.2582	0.9564	1.0	.
