data_x12277_config-1
loop_
 _symmetry_equiv_pos_as_xyz
'x, y, z'
'-x, -y, -z'

_cell_length_a	8.2269(2)
_cell_length_b	15.4454(3)
_cell_length_c	18.7415(4)
_cell_angle_alpha	107.123(1)
_cell_angle_beta	97.001(1)
_cell_angle_gamma	90.790(1)
loop_
 _atom_site_label
 _atom_site_type_symbol
 _atom_site_fract_x
 _atom_site_fract_y
 _atom_site_fract_z
 _atom_site_occupancy
 _atom_site_disorder_group
Si1	Si	0.91207(13)	0.40013(7)	0.80268(6)	1.0	.
Si2	Si	0.21146(13)	0.07192(7)	0.19366(5)	1.0	.
F1	F	0.4403(3)	0.58472(13)	0.65820(12)	1.0	.
F2	F	0.2269(3)	0.68107(14)	0.59326(14)	1.0	.
F3	F	0.0614(3)	0.60522(15)	0.45637(14)	1.0	.
F4	F	0.1009(2)	0.42919(14)	0.37843(13)	1.0	.
F5	F	0.6450(3)	-0.14283(12)	0.35021(11)	1.0	.
F6	F	0.8518(3)	-0.24068(13)	0.41641(12)	1.0	.
F7	F	1.0081(2)	-0.16732(14)	0.55542(12)	1.0	.
F8	F	0.9642(2)	0.00817(13)	0.63453(11)	1.0	.
C1	C	0.6264(4)	0.2603(2)	0.57832(17)	1.0	.
C2	C	0.5160(4)	0.3123(2)	0.54596(17)	1.0	.
C3	C	0.4893(4)	0.4024(2)	0.58400(18)	1.0	.
H3	H	0.5462	0.4292	0.6331	1.0	.
C4	C	0.3830(4)	0.4537(2)	0.55256(19)	1.0	.
C5	C	0.3568(4)	0.5457(2)	0.5900(2)	1.0	.
C6	C	0.2515(4)	0.5941(2)	0.5580(2)	1.0	.
C7	C	0.1643(4)	0.5534(2)	0.4854(2)	1.0	.
C8	C	0.1845(4)	0.4668(2)	0.4475(2)	1.0	.
C9	C	0.2948(4)	0.4126(2)	0.47839(19)	1.0	.
C10	C	0.3188(4)	0.3240(2)	0.43987(18)	1.0	.
H10	H	0.2600	0.2975	0.3911	1.0	.
C11	C	0.4292(3)	0.27182(19)	0.47141(17)	1.0	.
C12	C	0.4577(3)	0.1813(2)	0.43093(17)	1.0	.
C13	C	0.5655(3)	0.12914(19)	0.46416(16)	1.0	.
C14	C	0.5916(4)	0.0384(2)	0.42523(17)	1.0	.
H14	H	0.5367	0.0121	0.3757	1.0	.
C15	C	0.6953(4)	-0.0133(2)	0.45771(17)	1.0	.
C16	C	0.7232(4)	-0.1049(2)	0.41954(18)	1.0	.
C17	C	0.8248(4)	-0.1544(2)	0.4524(2)	1.0	.
C18	C	0.9067(4)	-0.1153(2)	0.5260(2)	1.0	.
C19	C	0.8842(4)	-0.0287(2)	0.56469(19)	1.0	.
C20	C	0.7783(3)	0.0266(2)	0.53313(18)	1.0	.
C21	C	0.7551(4)	0.1157(2)	0.57132(17)	1.0	.
H21	H	0.8113	0.1416	0.6207	1.0	.
C22	C	0.6503(3)	0.1690(2)	0.53884(17)	1.0	.
C23	C	0.7157(4)	0.3014(2)	0.65109(18)	1.0	.
C24	C	0.7933(4)	0.3369(2)	0.71110(19)	1.0	.
C25	C	1.019(5)	0.310(2)	0.8398(15)	1.0	1
H25	H	0.9318	0.2662	0.8430	1.0	1
C26	C	1.096(6)	0.363(2)	0.9227(15)	1.0	1
H26A	H	1.1534	0.3206	0.9458	1.0	1
H26B	H	1.0090	0.3898	0.9521	1.0	1
H26C	H	1.1740	0.4110	0.9217	1.0	1
C27	C	1.128(6)	0.260(2)	0.7878(17)	1.0	1
H27A	H	1.2078	0.3031	0.7796	1.0	1
H27B	H	1.0619	0.2293	0.7386	1.0	1
C28	C	1.2217(13)	0.1885(6)	0.8145(5)	1.0	1
H28A	H	1.1591	0.1300	0.7951	1.0	1
H28B	H	1.2379	0.2068	0.8697	1.0	1
H28C	H	1.3285	0.1826	0.7959	1.0	1
C29	C	0.7586(12)	0.4537(8)	0.8686(9)	1.0	1
H29	H	0.8200	0.4945	0.9162	1.0	1
C30	C	0.6392(17)	0.5120(11)	0.8318(9)	1.0	1
H30A	H	0.5691	0.4718	0.7882	1.0	1
H30B	H	0.7034	0.5547	0.8153	1.0	1
H30C	H	0.5707	0.5456	0.8688	1.0	1
C31	C	0.6650(13)	0.3816(10)	0.8871(8)	1.0	1
H31A	H	0.5883	0.3500	0.8415	1.0	1
H31B	H	0.7443	0.3369	0.8956	1.0	1
C32	C	0.5698(18)	0.4042(15)	0.9507(6)	1.0	1
H32A	H	0.6446	0.4238	0.9980	1.0	1
H32B	H	0.5030	0.3507	0.9495	1.0	1
H32C	H	0.4981	0.4534	0.9472	1.0	1
C33	C	1.0378(6)	0.4903(3)	0.7824(3)	1.0	.
H33	H	0.9572	0.5228	0.7566	1.0	.
C34	C	1.1583(7)	0.4489(4)	0.7228(3)	1.0	.
H34A	H	1.2129	0.4980	0.7100	1.0	.
H34B	H	1.0958	0.4078	0.6773	1.0	.
H34C	H	1.2407	0.4152	0.7443	1.0	.
C35	C	1.1180(10)	0.5621(4)	0.8512(4)	1.0	.
H35A	H	1.2039	0.5349	0.8783	1.0	.
H35B	H	1.0351	0.5851	0.8854	1.0	.
C36	C	1.1960(13)	0.6422(5)	0.8312(6)	1.0	.
H36A	H	1.2955	0.6230	0.8082	1.0	.
H36B	H	1.2242	0.6931	0.8770	1.0	.
H36C	H	1.1177	0.6611	0.7956	1.0	.
C37	C	0.3763(4)	0.1434(2)	0.35588(18)	1.0	.
C38	C	0.3103(4)	0.1138(2)	0.29240(18)	1.0	.
C39	C	-0.0119(5)	0.0499(3)	0.1994(2)	1.0	.
H39	H	-0.0159	-0.0008	0.2224	1.0	.
C40	C	-0.1150(7)	0.0152(6)	0.1214(3)	1.0	.
H40A	H	-0.2239	-0.0065	0.1268	1.0	.
H40B	H	-0.0606	-0.0346	0.0891	1.0	.
H40C	H	-0.1261	0.0647	0.0986	1.0	.
C41	C	-0.0861(5)	0.1292(4)	0.2518(3)	1.0	.
H41A	H	-0.0057	0.1557	0.2973	1.0	.
H41B	H	-0.1072	0.1764	0.2263	1.0	.
C42	C	-0.2433(6)	0.1039(5)	0.2757(3)	1.0	.
H42A	H	-0.3223	0.0754	0.2310	1.0	.
H42B	H	-0.2885	0.1585	0.3067	1.0	.
H42C	H	-0.2217	0.0612	0.3050	1.0	.
C43	C	0.319(2)	-0.0269(8)	0.1450(6)	1.0	1
H43	H	0.4355	-0.0028	0.1523	1.0	1
C44	C	0.327(2)	-0.0967(9)	0.1922(8)	1.0	1
H44A	H	0.2430	-0.1460	0.1687	1.0	1
H44B	H	0.3062	-0.0657	0.2437	1.0	1
H44C	H	0.4354	-0.1218	0.1933	1.0	1
C45	C	0.283(2)	-0.0667(11)	0.0636(7)	1.0	1
H45A	H	0.2770	-0.0172	0.0399	1.0	1
H45B	H	0.1739	-0.0991	0.0518	1.0	1
C46	C	0.408(3)	-0.1326(15)	0.0286(12)	1.0	1
H46A	H	0.5027	-0.0984	0.0212	1.0	1
H46B	H	0.3578	-0.1730	-0.0201	1.0	1
H46C	H	0.4445	-0.1686	0.0622	1.0	1
C47	C	0.239(2)	0.1713(12)	0.1533(8)	1.0	1
H47	H	0.1707	0.2190	0.1818	1.0	1
C48	C	0.4199(18)	0.2154(11)	0.1765(9)	1.0	1
H48A	H	0.4983	0.1681	0.1625	1.0	1
H48B	H	0.4388	0.2445	0.2311	1.0	1
H48C	H	0.4343	0.2608	0.1504	1.0	1
C49	C	0.168(2)	0.1534(10)	0.0760(7)	1.0	1
H49A	H	0.0511	0.1340	0.0725	1.0	1
H49B	H	0.2220	0.1010	0.0456	1.0	1
C50	C	0.174(3)	0.2272(12)	0.0393(10)	1.0	1
H50A	H	0.1149	0.2788	0.0664	1.0	1
H50B	H	0.1222	0.2045	-0.0131	1.0	1
H50C	H	0.2883	0.2467	0.0406	1.0	1
