data_x13357_config-2
loop_
 _symmetry_equiv_pos_as_xyz
'x, y, z'
'-x, -y, -z'

_cell_length_a	7.6204(2)
_cell_length_b	8.0587(2)
_cell_length_c	17.0031(3)
_cell_angle_alpha	77.138(1)
_cell_angle_beta	89.250(1)
_cell_angle_gamma	85.761(1)
loop_
 _atom_site_label
 _atom_site_type_symbol
 _atom_site_fract_x
 _atom_site_fract_y
 _atom_site_fract_z
 _atom_site_occupancy
 _atom_site_disorder_group
Ge1	Ge	0.79260(5)	0.75505(5)	0.17099(2)	1.0	.
F1	F	0.8989(2)	0.0341(2)	0.35300(10)	1.0	.
C1	C	0.5627(3)	0.5579(3)	0.41968(15)	1.0	.
F2	F	0.9721(2)	-0.2938(2)	0.43617(11)	1.0	.
C2	C	0.6044(3)	0.3869(3)	0.46169(15)	1.0	.
F3	F	0.8533(3)	-0.4005(2)	0.58608(12)	1.0	.
C3	C	0.7041(3)	0.2711(3)	0.42480(15)	1.0	.
H3	H	0.7461	0.3089	0.3714	1.0	.
F4	F	0.6662(2)	-0.1820(2)	0.66170(10)	1.0	.
C4	C	0.7419(3)	0.1029(3)	0.46499(16)	1.0	.
C5	C	0.8405(3)	-0.0178(3)	0.42862(17)	1.0	.
C6	C	0.8767(4)	-0.1808(3)	0.46943(18)	1.0	.
C7	C	0.8159(4)	-0.2360(3)	0.54892(19)	1.0	.
C8	C	0.7232(4)	-0.1279(3)	0.58601(17)	1.0	.
C9	C	0.6820(3)	0.0462(3)	0.54638(16)	1.0	.
C10	C	0.5846(3)	0.1587(3)	0.58358(15)	1.0	.
H10	H	0.5457	0.1205	0.6374	1.0	.
C11	C	0.5422(3)	0.3289(3)	0.54276(15)	1.0	.
C12	C	0.6304(3)	0.6178(3)	0.34053(16)	1.0	.
C13	C	0.6902(4)	0.6697(4)	0.27514(17)	1.0	.
C14	C	0.7489(8)	1.0057(6)	0.1496(3)	1.0	.
H14	H	0.8222	1.0328	0.1928	1.0	.
C15	C	0.5759(9)	1.0679(7)	0.1709(4)	1.0	.
H15A	H	0.5682	1.1929	0.1591	1.0	.
H15B	H	0.5555	1.0238	0.2285	1.0	.
H15C	H	0.4868	1.0292	0.1394	1.0	.
C16	C	0.8327(11)	1.0973(7)	0.0784(4)	1.0	.
H16A	H	0.7808	1.0713	0.0305	1.0	.
H16B	H	0.9589	1.0627	0.0805	1.0	.
H16C	H	0.8154	1.2202	0.0757	1.0	.
C17	C	1.0426(4)	0.6834(5)	0.1796(2)	1.0	.
H17	H	1.0969	0.7250	0.1256	1.0	.
C18	C	1.1356(6)	0.7597(8)	0.2407(3)	1.0	.
H18A	H	1.0785	0.7282	0.2934	1.0	.
H18B	H	1.1287	0.8843	0.2226	1.0	.
H18C	H	1.2592	0.7157	0.2454	1.0	.
C19	C	1.0670(6)	0.4875(7)	0.2003(3)	1.0	.
H19A	H	1.1927	0.4515	0.2062	1.0	.
H19B	H	1.0172	0.4430	0.1570	1.0	.
H19C	H	1.0066	0.4430	0.2511	1.0	.
C20'	C	0.650(3)	0.705(2)	0.0940(11)	1.0	2
H20'	H	0.5504	0.7948	0.0849	1.0	2
C21'	C	0.570(3)	0.539(3)	0.1251(10)	1.0	2
H21D	H	0.4873	0.5505	0.1686	1.0	2
H21E	H	0.6626	0.4497	0.1458	1.0	2
H21F	H	0.5066	0.5078	0.0812	1.0	2
C22'	C	0.743(4)	0.719(4)	0.0135(17)	1.0	2
H22D	H	0.7980	0.8280	-0.0006	1.0	2
H22E	H	0.6569	0.7147	-0.0282	1.0	2
H22F	H	0.8331	0.6248	0.0174	1.0	2
