data_k12063xs_config-1
loop_
 _symmetry_equiv_pos_as_xyz
'x, y, z'
'-x, y, -z+1/2'
'x+1/2, y+1/2, z'
'-x+1/2, y+1/2, -z+1/2'
'-x, -y, -z'
'x, -y, z-1/2'
'-x+1/2, -y+1/2, -z'
'x+1/2, -y+1/2, z-1/2'

_cell_length_a	29.4088(3)
_cell_length_b	8.5722(1)
_cell_length_c	20.0692(2)
_cell_angle_alpha	90.00
_cell_angle_beta	121.4773(5)
_cell_angle_gamma	90.00
loop_
 _atom_site_label
 _atom_site_type_symbol
 _atom_site_fract_x
 _atom_site_fract_y
 _atom_site_fract_z
 _atom_site_occupancy
 _atom_site_disorder_group
Si1	Si	0.14297(4)	0.16884(15)	0.33081(6)	1.0	.
C1	C	0.03425(14)	0.0364(4)	0.07989(18)	1.0	.
C2	C	-0.00422(14)	0.1468(4)	0.0300(2)	1.0	.
C3	C	-0.00972(16)	0.2934(4)	0.0579(2)	1.0	.
H3	H	0.0130	0.3199	0.1114	1.0	1
C4	C	-0.04843(16)	0.3981(4)	0.0069(2)	1.0	1
S5	S	-0.0650(3)	0.5818(5)	0.0256(3)	1.0	1
C6	C	-0.1151(6)	0.5986(13)	-0.0702(9)	1.0	1
H6	H	-0.1415	0.6777	-0.0885	1.0	1
C7	C	-0.1137(8)	0.491(2)	-0.1168(14)	1.0	1
H7	H	-0.1317	0.5007	-0.1720	1.0	1
C8	C	-0.08154(16)	0.3590(4)	-0.0734(2)	1.0	1
C9	C	-0.07769(15)	0.2197(5)	-0.1020(2)	1.0	.
H9	H	-0.1009	0.1965	-0.1558	1.0	1
C10	C	-0.03946(14)	0.1089(4)	-0.05237(19)	1.0	.
C11	C	0.06932(15)	0.0752(5)	0.1609(2)	1.0	.
C12	C	0.09915(16)	0.1086(5)	0.2287(2)	1.0	.
C13	C	0.1267(2)	0.0430(7)	0.3925(3)	1.0	1
H13	H	0.1425	-0.0616	0.3947	1.0	1
C14	C	0.0677(3)	0.0152(11)	0.3570(4)	1.0	1
H14A	H	0.0624	-0.0642	0.3874	1.0	1
H14B	H	0.0519	-0.0207	0.3030	1.0	1
H14C	H	0.0505	0.1127	0.3576	1.0	1
C15	C	0.1558(2)	0.1026(9)	0.4761(3)	1.0	1
H15A	H	0.1933	0.1245	0.4926	1.0	1
H15B	H	0.1394	0.2024	0.4774	1.0	1
C16	C	0.1554(3)	-0.0081(9)	0.5347(3)	1.0	1
H16A	H	0.1185	-0.0333	0.5183	1.0	1
H16B	H	0.1731	0.0416	0.5863	1.0	1
H16C	H	0.1745	-0.1040	0.5374	1.0	1
C17	C	0.1298(6)	0.3830(7)	0.3322(10)	1.0	1
H17	H	0.1396	0.4266	0.2951	1.0	1
C18	C	0.1669(10)	0.4743(14)	0.4078(11)	1.0	1
H18A	H	0.1547	0.5827	0.4017	1.0	1
H18B	H	0.2034	0.4720	0.4183	1.0	1
H18C	H	0.1662	0.4263	0.4516	1.0	1
C19	C	0.0731(6)	0.4368(18)	0.2968(19)	1.0	1
H19A	H	0.0626	0.4226	0.3359	1.0	1
H19B	H	0.0499	0.3686	0.2517	1.0	1
C20	C	0.0624(4)	0.6067(10)	0.2689(6)	1.0	1
H20A	H	0.0914	0.6729	0.3077	1.0	1
H20B	H	0.0285	0.6409	0.2626	1.0	1
H20C	H	0.0604	0.6149	0.2188	1.0	1
C21	C	0.2152(3)	0.1198(19)	0.3684(5)	1.0	1
H21	H	0.2365	0.1476	0.4251	1.0	1
C22	C	0.2256(12)	-0.0496(18)	0.3606(12)	1.0	1
H22A	H	0.2083	-0.1155	0.3810	1.0	1
H22B	H	0.2641	-0.0691	0.3903	1.0	1
H22C	H	0.2110	-0.0743	0.3054	1.0	1
C23	C	0.2327(11)	0.2285(19)	0.3245(11)	1.0	1
H23A	H	0.2119	0.3267	0.3107	1.0	1
H23B	H	0.2709	0.2549	0.3590	1.0	1
C24	C	0.2241(6)	0.1518(16)	0.2517(5)	1.0	1
H24A	H	0.1872	0.1682	0.2091	1.0	1
H24B	H	0.2311	0.0398	0.2609	1.0	1
H24C	H	0.2484	0.1975	0.2374	1.0	1
