data_k08173_config-0
loop_
 _symmetry_equiv_pos_as_xyz
'x, y, z'
'-x, -y, z+1/2'
'-x+1/2, y+1/2, z+1/2'
'x+1/2, -y+1/2, z'

_cell_length_a	15.9151(1)
_cell_length_b	10.2858(2)
_cell_length_c	27.0306(3)
_cell_angle_alpha	90.00
_cell_angle_beta	90.00
_cell_angle_gamma	90.00
loop_
 _atom_site_label
 _atom_site_type_symbol
 _atom_site_fract_x
 _atom_site_fract_y
 _atom_site_fract_z
 _atom_site_occupancy
 _atom_site_disorder_group
Si1	Si	0.22909(4)	0.04828(6)	0.34546(2)	1.0	.
Si2	Si	0.56827(4)	0.98325(5)	0.19018(2)	1.0	.
C1	C	0.35943(13)	0.3953(2)	0.28047(8)	1.0	.
C2	C	0.36128(13)	0.4170(2)	0.22867(8)	1.0	.
C3	C	0.32596(13)	0.3276(2)	0.19494(9)	1.0	.
H3	H	0.3007	0.2505	0.2073	1.0	.
C4	C	0.32710(13)	0.3491(2)	0.14438(8)	1.0	.
C5	C	0.28873(14)	0.2621(2)	0.10970(9)	1.0	.
H5	H	0.2620	0.1856	0.1214	1.0	.
C6	C	0.28984(15)	0.2869(2)	0.06041(9)	1.0	.
H6	H	0.2634	0.2281	0.0382	1.0	.
C7	C	0.33010(14)	0.3997(2)	0.04168(9)	1.0	.
H7	H	0.3310	0.4155	0.0071	1.0	.
C8	C	0.36750(14)	0.4854(2)	0.07313(9)	1.0	.
H8	H	0.3943	0.5606	0.0602	1.0	.
C9	C	0.36700(13)	0.4642(2)	0.12508(9)	1.0	.
C10	C	0.40230(14)	0.5523(2)	0.15809(8)	1.0	.
H10	H	0.4292	0.6277	0.1454	1.0	.
C11	C	0.39967(13)	0.5337(2)	0.20941(9)	1.0	.
C12	C	0.43329(13)	0.6264(2)	0.24261(8)	1.0	.
C13	C	0.43254(13)	0.6047(2)	0.29464(8)	1.0	.
C14	C	0.46904(14)	0.6938(2)	0.32783(9)	1.0	.
H14	H	0.4945	0.7704	0.3151	1.0	.
C15	C	0.46891(14)	0.6730(2)	0.37836(8)	1.0	.
C16	C	0.50775(14)	0.7613(2)	0.41229(9)	1.0	.
H16	H	0.5357	0.8362	0.4000	1.0	.
C17	C	0.50520(16)	0.7397(2)	0.46174(10)	1.0	.
H17	H	0.5320	0.7988	0.4836	1.0	.
C18	C	0.46241(15)	0.6286(2)	0.48117(9)	1.0	.
H18	H	0.4598	0.6158	0.5159	1.0	.
C19	C	0.42555(14)	0.5414(2)	0.45062(9)	1.0	.
H19	H	0.3978	0.4680	0.4643	1.0	.
C20	C	0.42760(14)	0.5580(2)	0.39779(9)	1.0	.
C21	C	0.39290(13)	0.4697(2)	0.36543(9)	1.0	.
H21	H	0.3670	0.3938	0.3784	1.0	.
C22	C	0.39432(14)	0.4877(2)	0.31378(9)	1.0	.
C23	C	0.32014(13)	0.2805(2)	0.30036(8)	1.0	.
C24	C	0.28591(14)	0.1872(2)	0.31848(8)	1.0	.
C25	C	0.13760(14)	0.1045(2)	0.38402(9)	1.0	.
H25A	H	0.0942	0.1378	0.3611	1.0	.
H25B	H	0.1136	0.0269	0.4005	1.0	.
C26	C	0.15148(14)	0.2093(2)	0.42433(9)	1.0	.
H26	H	0.2054	0.1885	0.4416	1.0	.
C27	C	0.08175(16)	0.2077(2)	0.46316(9)	1.0	.
H27A	H	0.0778	0.1196	0.4778	1.0	.
H27B	H	0.0274	0.2275	0.4471	1.0	.
C28	C	0.09821(18)	0.3069(2)	0.50427(10)	1.0	.
H28A	H	0.0506	0.3063	0.5279	1.0	.
H28B	H	0.1497	0.2822	0.5226	1.0	.
C29	C	0.10883(16)	0.4436(2)	0.48311(9)	1.0	.
H29A	H	0.0548	0.4732	0.4689	1.0	.
H29B	H	0.1244	0.5042	0.5101	1.0	.
C30	C	0.17604(17)	0.4468(2)	0.44332(9)	1.0	.
H30A	H	0.2316	0.4299	0.4585	1.0	.
H30B	H	0.1776	0.5344	0.4281	1.0	.
C31	C	0.15920(16)	0.3459(2)	0.40339(9)	1.0	.
H31A	H	0.1066	0.3686	0.3859	1.0	.
H31B	H	0.2055	0.3479	0.3790	1.0	.
C32	C	0.30682(15)	-0.0488(2)	0.38286(9)	1.0	.
H32	H	0.3534	-0.0736	0.3599	1.0	.
C33	C	0.34702(19)	0.0260(3)	0.42577(12)	1.0	.
H33A	H	0.3047	0.0422	0.4514	1.0	.
H33B	H	0.3690	0.1091	0.4136	1.0	.
H33C	H	0.3931	-0.0254	0.4397	1.0	.
C34	C	0.26778(17)	-0.1767(3)	0.40182(10)	1.0	.
H34A	H	0.3088	-0.2229	0.4223	1.0	.
H34B	H	0.2519	-0.2312	0.3736	1.0	.
H34C	H	0.2177	-0.1571	0.4216	1.0	.
C35	C	0.18947(15)	-0.0501(2)	0.29173(9)	1.0	.
H35	H	0.1527	-0.1203	0.3054	1.0	.
C36	C	0.26121(16)	-0.1166(3)	0.26353(10)	1.0	.
H36A	H	0.2381	-0.1652	0.2355	1.0	.
H36B	H	0.2908	-0.1764	0.2857	1.0	.
H36C	H	0.3005	-0.0506	0.2514	1.0	.
C37	C	0.13577(15)	0.0307(2)	0.25602(9)	1.0	.
H37A	H	0.1695	0.1022	0.2426	1.0	.
H37B	H	0.0872	0.0662	0.2738	1.0	.
H37C	H	0.1162	-0.0246	0.2288	1.0	.
C38	C	0.47066(13)	0.7440(2)	0.22365(8)	1.0	.
C39	C	0.50266(14)	0.8419(2)	0.20804(8)	1.0	.
C40	C	0.66149(14)	0.9194(2)	0.15460(9)	1.0	.
H40A	H	0.6679	0.9726	0.1243	1.0	.
H40B	H	0.7124	0.9330	0.1750	1.0	.
C41	C	0.65861(14)	0.7759(2)	0.13923(8)	1.0	.
H41	H	0.6395	0.7244	0.1685	1.0	.
C42	C	0.59614(14)	0.7522(2)	0.09746(9)	1.0	.
H42A	H	0.6120	0.8060	0.0686	1.0	.
H42B	H	0.5395	0.7797	0.1084	1.0	.
C43	C	0.59313(15)	0.6094(2)	0.08187(10)	1.0	.
H43A	H	0.5705	0.5565	0.1094	1.0	.
H43B	H	0.5549	0.5997	0.0532	1.0	.
C44	C	0.67994(16)	0.5597(2)	0.06796(10)	1.0	.
H44A	H	0.6768	0.4655	0.0606	1.0	.
H44B	H	0.6996	0.6049	0.0378	1.0	.
C45	C	0.74235(16)	0.5822(2)	0.10955(10)	1.0	.
H45A	H	0.7989	0.5537	0.0988	1.0	.
H45B	H	0.7260	0.5293	0.1386	1.0	.
C46	C	0.74565(15)	0.7254(2)	0.12435(9)	1.0	.
H46A	H	0.7672	0.7773	0.0962	1.0	.
H46B	H	0.7850	0.7362	0.1524	1.0	.
C47	C	0.50490(14)	1.1045(2)	0.15352(9)	1.0	.
H47	H	0.4517	1.1212	0.1722	1.0	.
C48	C	0.48061(16)	1.0557(2)	0.10214(9)	1.0	.
H48A	H	0.4443	1.1199	0.0860	1.0	.
H48B	H	0.4505	0.9730	0.1052	1.0	.
H48C	H	0.5315	1.0429	0.0823	1.0	.
C49	C	0.55148(16)	1.2345(2)	0.14872(11)	1.0	.
H49A	H	0.6065	1.2198	0.1335	1.0	.
H49B	H	0.5591	1.2728	0.1816	1.0	.
H49C	H	0.5186	1.2939	0.1280	1.0	.
C50	C	0.60259(15)	1.0562(2)	0.25080(9)	1.0	.
H50	H	0.6406	1.1309	0.2431	1.0	.
C51	C	0.52675(16)	1.1105(3)	0.27908(10)	1.0	.
H51A	H	0.4884	1.0394	0.2875	1.0	.
H51B	H	0.4974	1.1741	0.2583	1.0	.
H51C	H	0.5461	1.1529	0.3095	1.0	.
C52	C	0.65289(15)	0.9593(2)	0.28205(9)	1.0	.
H52A	H	0.6710	1.0014	0.3128	1.0	.
H52B	H	0.7023	0.9304	0.2634	1.0	.
H52C	H	0.6175	0.8841	0.2900	1.0	.
