data_k13166u_config-2
loop_
 _symmetry_equiv_pos_as_xyz
'x, y, z'
'-x, y+1/2, -z+1/2'
'-x, -y, -z'
'x, -y-1/2, z-1/2'

_cell_length_a	9.3456(1)
_cell_length_b	14.9199(1)
_cell_length_c	14.8238(1)
_cell_angle_alpha	90
_cell_angle_beta	95.8103(4)
_cell_angle_gamma	90
loop_
 _atom_site_label
 _atom_site_type_symbol
 _atom_site_fract_x
 _atom_site_fract_y
 _atom_site_fract_z
 _atom_site_occupancy
 _atom_site_disorder_group
Si1	Si	0.63186(4)	0.15226(3)	0.34120(3)	1.0	.
C1	C	0.53904(15)	0.42188(9)	0.45348(9)	1.0	.
C2	C	0.64122(15)	0.46365(9)	0.51735(9)	1.0	.
C3	C	0.78241(15)	0.43035(9)	0.53450(9)	1.0	.
H3	H	0.8101	0.3802	0.5008	1.0	.
C4	C	0.88265(15)	0.46835(9)	0.59914(9)	1.0	.
C5	C	1.02783(16)	0.43490(10)	0.61376(10)	1.0	.
C6	C	1.12074(17)	0.47575(11)	0.67708(11)	1.0	.
H6	H	1.2176	0.4556	0.6856	1.0	.
C7	C	1.07774(17)	0.54791(11)	0.73129(11)	1.0	.
H7	H	1.1461	0.5731	0.7760	1.0	.
C8	C	0.94187(16)	0.58183(10)	0.72102(10)	1.0	.
C9	C	0.83957(15)	0.54390(9)	0.65170(9)	1.0	.
C10	C	0.70209(15)	0.57917(9)	0.63281(9)	1.0	.
H10	H	0.6752	0.6299	0.6660	1.0	.
C11	C	0.60105(15)	0.54189(9)	0.56578(9)	1.0	.
C12	C	0.57579(15)	0.33941(9)	0.41273(10)	1.0	.
C13	C	0.60457(15)	0.26611(10)	0.38383(10)	1.0	.
C14	C	0.50031(17)	0.07587(10)	0.39110(11)	1.0	.
H14	H	0.5360	0.0664	0.4563	1.0	.
C15	C	0.34882(19)	0.11603(12)	0.38833(14)	1.0	.
H15A	H	0.3114	0.1275	0.3252	1.0	.
H15B	H	0.3530	0.1724	0.4224	1.0	.
H15C	H	0.2854	0.0738	0.4156	1.0	.
C16	C	0.49638(19)	-0.01633(11)	0.34441(13)	1.0	.
H16A	H	0.4273	-0.0551	0.3711	1.0	.
H16B	H	0.5922	-0.0436	0.3529	1.0	.
H16C	H	0.4672	-0.0090	0.2795	1.0	.
C17'	C	0.623(4)	0.172(3)	0.2161(7)	1.0	2
H17'	H	0.6420	0.1117	0.1894	1.0	2
C18'	C	0.731(3)	0.2352(16)	0.1776(17)	1.0	2
H18C	H	0.8225	0.2042	0.1748	1.0	2
H18D	H	0.7454	0.2879	0.2169	1.0	2
H18E	H	0.6926	0.2541	0.1166	1.0	2
C19'	C	0.469(4)	0.194(3)	0.181(4)	1.0	2
H19C	H	0.4437	0.1651	0.1225	1.0	2
H19D	H	0.4588	0.2595	0.1738	1.0	2
H19E	H	0.4038	0.1735	0.2247	1.0	2
C20'	C	0.8288(10)	0.129(2)	0.365(3)	1.0	2
H20'	H	0.8513	0.0645	0.3795	1.0	2
C21'	C	0.923(4)	0.170(3)	0.2993(18)	1.0	2
H21D	H	0.9933	0.1304	0.2732	1.0	2
H21E	H	0.8801	0.2168	0.2578	1.0	2
C22'	C	0.949(3)	0.192(2)	0.3967(19)	1.0	2
H22D	H	0.9230	0.2532	0.4158	1.0	2
H22E	H	1.0361	0.1668	0.4312	1.0	2
C23	C	1.07374(17)	0.35664(10)	0.55921(11)	1.0	.
H23A	H	1.1750	0.3428	0.5776	1.0	.
H23B	H	1.0617	0.3719	0.4946	1.0	.
H23C	H	1.0144	0.3043	0.5700	1.0	.
C24	C	0.89761(18)	0.65613(11)	0.78069(11)	1.0	.
H24A	H	0.9804	0.6748	0.8223	1.0	.
H24B	H	0.8207	0.6349	0.8157	1.0	.
H24C	H	0.8628	0.7072	0.7430	1.0	.
