data_m17023_config-0
loop_
 _symmetry_equiv_pos_as_xyz
'x, y, z'
'-x, y+1/2, -z+1/2'
'-x, -y, -z'
'x, -y-1/2, z-1/2'

_cell_length_a	14.2974(8)
_cell_length_b	10.5521(6)
_cell_length_c	15.0920(8)
_cell_angle_alpha	90
_cell_angle_beta	92.1759(19)
_cell_angle_gamma	90
loop_
 _atom_site_label
 _atom_site_type_symbol
 _atom_site_fract_x
 _atom_site_fract_y
 _atom_site_fract_z
 _atom_site_occupancy
 _atom_site_disorder_group
Si1	Si	0.63388(3)	0.95877(3)	0.68749(2)	1.0	.
C1	C	0.53592(9)	0.61164(13)	0.54128(9)	1.0	.
C2	C	0.43765(9)	0.59585(12)	0.52902(9)	1.0	.
C3	C	0.37437(10)	0.68751(13)	0.55832(9)	1.0	.
H3A	H	0.398039	0.761061	0.587741	1.0	.
C4	C	0.27828(10)	0.67336(13)	0.54540(9)	1.0	.
C5	C	0.2137(1)	0.76558(14)	0.57594(10)	1.0	.
H5A	H	0.236522	0.837399	0.607974	1.0	.
C6	C	0.12010(11)	0.75183(15)	0.55975(11)	1.0	.
H6A	H	0.078105	0.813843	0.580640	1.0	.
C7	C	0.08454(10)	0.64467(15)	0.51151(11)	1.0	.
H7A	H	0.019094	0.637099	0.499349	1.0	.
C8	C	0.1430(1)	0.55370(14)	0.48290(10)	1.0	.
H8A	H	0.117938	0.482587	0.451557	1.0	.
C9	C	0.24220(9)	0.56321(13)	0.49925(9)	1.0	.
C10	C	0.30368(9)	0.47097(13)	0.47170(9)	1.0	.
H10A	H	0.279460	0.397782	0.442224	1.0	.
C11	C	0.40133(9)	0.48302(13)	0.48633(9)	1.0	.
C12	C	0.57095(9)	0.72357(13)	0.58426(9)	1.0	.
C13	C	0.59826(9)	0.81849(13)	0.62166(9)	1.0	.
C14	C	0.52292(10)	1.04378(13)	0.71491(10)	1.0	.
H14A	H	0.539661	1.113763	0.757285	1.0	.
C15	C	0.45392(11)	0.95536(15)	0.75978(11)	1.0	.
H15A	H	0.397952	1.003200	0.774801	1.0	.
H15B	H	0.483605	0.920217	0.813979	1.0	.
H15C	H	0.436136	0.886186	0.719219	1.0	.
C16	C	0.47704(12)	1.10313(17)	0.63129(11)	1.0	.
H16A	H	0.418630	1.145065	0.646500	1.0	.
H16B	H	0.463480	1.036716	0.587266	1.0	.
H16C	H	0.519684	1.165521	0.606685	1.0	.
C17	C	0.71355(10)	1.06127(13)	0.62202(10)	1.0	.
H17A	H	0.680230	1.081425	0.564277	1.0	.
C18	C	0.73350(12)	1.18737(15)	0.67031(11)	1.0	.
H18A	H	0.776508	1.238375	0.635988	1.0	.
H18B	H	0.761951	1.170255	0.729197	1.0	.
H18C	H	0.674740	1.233790	0.676515	1.0	.
C19	C	0.80541(11)	0.99423(16)	0.60120(11)	1.0	.
H19A	H	0.841607	1.047810	0.562015	1.0	.
H19B	H	0.791432	0.913235	0.571811	1.0	.
H19C	H	0.841834	0.978850	0.656465	1.0	.
C20	C	0.69896(10)	0.89652(14)	0.78914(10)	1.0	.
H20A	H	0.740934	0.963541	0.813622	1.0	.
H20B	H	0.653524	0.875198	0.834737	1.0	.
C21	C	0.75701(10)	0.77868(14)	0.7689(1)	1.0	.
H21A	H	0.714090	0.707188	0.754960	1.0	.
H21B	H	0.793588	0.795297	0.715728	1.0	.
C22	C	0.82291(11)	0.74095(16)	0.84421(11)	1.0	.
F1	F	0.77470(9)	0.71329(13)	0.91750(7)	1.0	.
F2	F	0.88210(7)	0.83680(11)	0.86734(8)	1.0	.
C23	C	0.88433(12)	0.62406(17)	0.82704(12)	1.0	.
F3	F	0.82876(8)	0.5283(1)	0.79800(10)	1.0	.
F4	F	0.92818(9)	0.58829(13)	0.90393(8)	1.0	.
C24	C	0.96076(13)	0.63841(19)	0.75922(13)	1.0	.
F5	F	0.92610(8)	0.67715(14)	0.68107(7)	1.0	.
F6	F	1.02545(8)	0.71961(14)	0.78654(10)	1.0	.
F7	F	1.00228(9)	0.52818(13)	0.74705(10)	1.0	.
