data_x09086_config-1
loop_
 _symmetry_equiv_pos_as_xyz
'x, y, z'
'-x+1/2, y+1/2, -z+1/2'
'-x, -y, -z'
'x-1/2, -y-1/2, z-1/2'

_cell_length_a	11.7476(2)
_cell_length_b	12.5710(2)
_cell_length_c	15.1412(3)
_cell_angle_alpha	90.00
_cell_angle_beta	105.977(1)
_cell_angle_gamma	90.00
loop_
 _atom_site_label
 _atom_site_type_symbol
 _atom_site_fract_x
 _atom_site_fract_y
 _atom_site_fract_z
 _atom_site_occupancy
 _atom_site_disorder_group
Si1	Si	0.68090(9)	0.63790(7)	0.86593(8)	1.0	.
C1	C	0.9284(3)	0.9090(2)	0.9706(2)	1.0	.
C2	C	1.0231(3)	0.9303(2)	0.9327(2)	1.0	.
C3	C	1.0477(3)	0.8643(2)	0.8653(2)	1.0	.
H3	H	0.9992	0.8038	0.8451	1.0	.
C4	C	1.1401(3)	0.8844(3)	0.8274(2)	1.0	.
C5	C	1.1657(4)	0.8180(3)	0.7588(3)	1.0	.
H5	H	1.1172	0.7577	0.7374	1.0	.
C6	C	1.2576(4)	0.8391(4)	0.7237(3)	1.0	.
H6	H	1.2731	0.7936	0.6782	1.0	.
C7	C	1.3310(4)	0.9292(4)	0.7546(3)	1.0	.
H7	H	1.3951	0.9436	0.7295	1.0	.
C8	C	1.3102(4)	0.9945(3)	0.8193(3)	1.0	.
H8	H	1.3605	1.0540	0.8393	1.0	.
C9	C	1.2144(3)	0.9759(3)	0.8585(3)	1.0	.
C10	C	1.1904(3)	1.0420(3)	0.9241(2)	1.0	.
H10	H	1.2393	1.1024	0.9440	1.0	.
C11	C	1.0961(3)	1.0230(2)	0.9625(2)	1.0	.
C12	C	0.8542(3)	0.8186(3)	0.9394(3)	1.0	.
C13	C	0.7897(3)	0.7435(3)	0.9113(3)	1.0	.
C14	C	0.5437(10)	0.6863(7)	0.8882(6)	1.0	1
H14	H	0.5232	0.7550	0.8544	1.0	1
C15	C	0.5561(6)	0.7094(6)	0.9884(5)	1.0	1
H15A	H	0.6365	0.7373	1.0173	1.0	1
H15B	H	0.5468	0.6423	1.0200	1.0	1
C16	C	0.462(4)	0.792(4)	1.002(4)	1.0	1
H16A	H	0.4650	0.7967	1.0669	1.0	1
H16B	H	0.3826	0.7696	0.9663	1.0	1
H16C	H	0.4793	0.8623	0.9801	1.0	1
C17	C	0.438(2)	0.611(3)	0.852(3)	1.0	1
H17A	H	0.4249	0.6004	0.7853	1.0	1
H17B	H	0.3668	0.6415	0.8630	1.0	1
H17C	H	0.4549	0.5418	0.8828	1.0	1
C18	C	0.7484(4)	0.5074(3)	0.9152(3)	1.0	.
H18	H	0.8154	0.4963	0.8874	1.0	.
C19	C	0.8048(5)	0.5071(4)	1.0152(3)	1.0	.
H19A	H	0.7423	0.5173	1.0469	1.0	.
H19B	H	0.8587	0.5690	1.0304	1.0	.
C20	C	0.8746(4)	0.4079(3)	1.0539(3)	1.0	.
H20A	H	0.8983	0.4113	1.1211	1.0	.
H20B	H	0.9454	0.4035	1.0317	1.0	.
H20C	H	0.8252	0.3449	1.0337	1.0	.
C21	C	0.6654(4)	0.4146(3)	0.8801(3)	1.0	.
H21A	H	0.6367	0.4181	0.8129	1.0	.
H21B	H	0.5981	0.4183	0.9064	1.0	.
H21C	H	0.7081	0.3476	0.8982	1.0	.
C22	C	0.6632(17)	0.6393(15)	0.7364(17)	1.0	1
H22	H	0.6117	0.5769	0.7111	1.0	1
C23	C	0.7616(10)	0.6357(8)	0.6928(9)	1.0	1
H23A	H	0.7283	0.6588	0.6283	1.0	1
H23B	H	0.8190	0.6911	0.7232	1.0	1
C24	C	0.8294(10)	0.5401(9)	0.6903(9)	1.0	1
H24A	H	0.8908	0.5553	0.6595	1.0	1
H24B	H	0.7767	0.4845	0.6565	1.0	1
H24C	H	0.8665	0.5158	0.7531	1.0	1
C25	C	0.586(2)	0.7396(15)	0.7011(19)	1.0	1
H25A	H	0.5191	0.7414	0.7282	1.0	1
H25B	H	0.5558	0.7365	0.6340	1.0	1
H25C	H	0.6340	0.8038	0.7189	1.0	1
