data_x15218_config-2
loop_
 _symmetry_equiv_pos_as_xyz
'x, y, z'
'-x+1/2, y+1/2, -z+1/2'
'-x, -y, -z'
'x-1/2, -y-1/2, z-1/2'

_cell_length_a	5.2828(6)
_cell_length_b	22.806(3)
_cell_length_c	23.491(3)
_cell_angle_alpha	90
_cell_angle_beta	92.925(9)
_cell_angle_gamma	90
loop_
 _atom_site_label
 _atom_site_type_symbol
 _atom_site_fract_x
 _atom_site_fract_y
 _atom_site_fract_z
 _atom_site_occupancy
 _atom_site_disorder_group
Si1	Si	-0.25796(18)	0.68818(4)	0.48830(5)	1.0	.
C1	C	0.2928(6)	0.53943(15)	0.49632(16)	1.0	.
C2	C	0.3958(6)	0.52205(15)	0.55069(16)	1.0	.
C3	C	0.2956(7)	0.54105(16)	0.60202(17)	1.0	.
H3	H	0.1529	0.5664	0.6002	1.0	.
C4	C	0.3969(7)	0.52421(17)	0.65470(17)	1.0	.
C5	C	0.2930(8)	0.54310(18)	0.70666(18)	1.0	.
H5	H	0.1471	0.5675	0.7052	1.0	.
C6	C	0.3981(9)	0.5269(2)	0.7575(2)	1.0	.
H6	H	0.3259	0.5402	0.7914	1.0	.
C7	C	0.6173(9)	0.4900(2)	0.7614(2)	1.0	.
H7	H	0.6903	0.4790	0.7976	1.0	.
C8	C	0.7197(8)	0.47076(19)	0.71335(18)	1.0	.
H8	H	0.8652	0.4463	0.7163	1.0	.
C9	C	0.6143(7)	0.48644(17)	0.65791(17)	1.0	.
C10	C	0.7143(7)	0.46602(16)	0.60824(17)	1.0	.
H10	H	0.8576	0.4408	0.6108	1.0	.
C11	C	0.6083(6)	0.48173(15)	0.55399(16)	1.0	.
C12	C	0.0933(6)	0.58264(16)	0.49355(16)	1.0	.
C13	C	-0.0587(7)	0.62149(17)	0.49188(17)	1.0	.
C14	C	-0.4521(7)	0.68620(17)	0.41960(18)	1.0	.
H14A	H	-0.5924	0.6579	0.4232	1.0	.
H14B	H	-0.5282	0.7254	0.4126	1.0	.
C15	C	-0.3009(8)	0.66906(19)	0.36842(18)	1.0	.
C16'	C	-0.4427(9)	0.6782(2)	0.3113(2)	1.0	2
H16C	H	-0.4819	0.7206	0.3085	1.0	2
H16D	H	-0.6071	0.6577	0.3135	1.0	2
C17'	C	-0.336(5)	0.661(2)	0.2546(6)	1.0	2
H17C	H	-0.1847	0.6848	0.2481	1.0	2
H17D	H	-0.2810	0.6191	0.2569	1.0	2
C18'	C	-0.525(5)	0.6678(15)	0.2039(6)	1.0	2
H18C	H	-0.5837	0.7090	0.2018	1.0	2
H18D	H	-0.6748	0.6426	0.2094	1.0	2
C19'	C	-0.406(7)	0.6510(15)	0.1478(7)	1.0	2
H19D	H	-0.5312	0.6560	0.1160	1.0	2
H19E	H	-0.2594	0.6763	0.1420	1.0	2
H19F	H	-0.3504	0.6100	0.1497	1.0	2
C20	C	-0.4421(7)	0.69180(17)	0.55392(18)	1.0	.
H20A	H	-0.5053	0.7323	0.5585	1.0	.
H20B	H	-0.5912	0.6656	0.5491	1.0	.
C21	C	-0.2857(7)	0.67392(19)	0.60883(17)	1.0	.
H21A	H	-0.2496	0.6314	0.6073	1.0	.
H21B	H	-0.1214	0.6949	0.6098	1.0	.
C22	C	-0.4166(8)	0.68704(19)	0.66322(19)	1.0	.
H22A	H	-0.4437	0.7299	0.6660	1.0	.
H22B	H	-0.5851	0.6679	0.6614	1.0	.
C23	C	-0.2687(8)	0.66636(19)	0.71621(18)	1.0	.
H23A	H	-0.0959	0.6831	0.7162	1.0	.
H23B	H	-0.2521	0.6232	0.7144	1.0	.
C24	C	-0.3843(10)	0.6824(2)	0.7718(2)	1.0	.
H24A	H	-0.5581	0.6662	0.7719	1.0	.
H24B	H	-0.3970	0.7256	0.7744	1.0	.
C25	C	-0.2306(12)	0.6595(3)	0.8238(2)	1.0	.
H25A	H	-0.2174	0.6167	0.8215	1.0	.
H25B	H	-0.3151	0.6703	0.8585	1.0	.
H25C	H	-0.0605	0.6767	0.8249	1.0	.
C26'	C	-0.0402(7)	0.75299(17)	0.48856(18)	1.0	2
H26C	H	0.0182	0.7616	0.5284	1.0	2
H26D	H	0.1108	0.7426	0.4674	1.0	2
C27'	C	-0.161(3)	0.8087(4)	0.4621(8)	1.0	2
H27C	H	-0.1820	0.8034	0.4203	1.0	2
H27D	H	-0.3311	0.8140	0.4769	1.0	2
C28'	C	-0.006(5)	0.8640(6)	0.474(2)	1.0	2
H28C	H	0.1749	0.8554	0.4688	1.0	2
H28D	H	-0.0216	0.8752	0.5147	1.0	2
C29'	C	-0.090(3)	0.9164(5)	0.4359(6)	1.0	2
H29C	H	0.0360	0.9484	0.4409	1.0	2
H29D	H	-0.0932	0.9039	0.3955	1.0	2
C30'	C	-0.347(3)	0.9394(6)	0.4491(7)	1.0	2
H30C	H	-0.3439	0.9513	0.4896	1.0	2
H30D	H	-0.4728	0.9075	0.4436	1.0	2
C31'	C	-0.431(9)	0.992(2)	0.411(4)	1.0	2
H31D	H	-0.5987	1.0053	0.4218	1.0	2
H31E	H	-0.3087	1.0242	0.4173	1.0	2
H31F	H	-0.4376	0.9803	0.3712	1.0	2
