data_k06057_config-2
loop_
 _symmetry_equiv_pos_as_xyz
'x, y, z'
'-x, -y, -z'

_cell_length_a	14.1150(2)
_cell_length_b	16.5530(2)
_cell_length_c	20.2750(3)
_cell_angle_alpha	95.4690(5)
_cell_angle_beta	94.2900(5)
_cell_angle_gamma	106.4480(5)
loop_
 _atom_site_label
 _atom_site_type_symbol
 _atom_site_fract_x
 _atom_site_fract_y
 _atom_site_fract_z
 _atom_site_occupancy
 _atom_site_disorder_group
Si1B	Si	0.69201(6)	0.96599(5)	0.42661(4)	1.0	.
C1B	C	0.4197(2)	0.75016(18)	0.43950(15)	1.0	.
Si2B	Si	0.00664(6)	0.35899(6)	0.40132(5)	1.0	.
C2B	C	0.4223(2)	0.68314(18)	0.47738(14)	1.0	.
C3B	C	0.5074(2)	0.68434(19)	0.51870(14)	1.0	.
H3B	H	0.5644	0.7324	0.5220	1.0	.
C4B	C	0.5112(2)	0.61790(19)	0.55482(14)	1.0	.
C5B	C	0.5980(2)	0.6170(2)	0.59494(15)	1.0	.
H5B	H	0.6561	0.6640	0.5985	1.0	.
C6B	C	0.5989(2)	0.5497(2)	0.62825(16)	1.0	.
H6B	H	0.6578	0.5500	0.6543	1.0	.
C7B	C	0.5123(3)	0.4786(2)	0.62463(16)	1.0	.
H7B	H	0.5140	0.4323	0.6486	1.0	.
C8B	C	0.4281(2)	0.4766(2)	0.58730(15)	1.0	.
H8B	H	0.3712	0.4288	0.5855	1.0	.
C9B	C	0.4233(2)	0.54517(18)	0.55046(14)	1.0	.
C10B	C	0.3392(2)	0.54341(18)	0.51012(14)	1.0	.
H10B	H	0.2821	0.4956	0.5075	1.0	.
C11B	C	0.3351(2)	0.61015(19)	0.47276(14)	1.0	.
C12B	C	0.2490(2)	0.60633(19)	0.43047(14)	1.0	.
C13B	C	0.2450(2)	0.67600(19)	0.39580(15)	1.0	.
C14B	C	0.1583(2)	0.6754(2)	0.35548(15)	1.0	.
H14B	H	0.1014	0.6273	0.3518	1.0	.
C15B	C	0.1546(2)	0.7429(2)	0.32146(15)	1.0	.
C16B	C	0.0673(2)	0.7428(2)	0.27994(16)	1.0	.
H16B	H	0.0095	0.6955	0.2764	1.0	.
C17B	C	0.0660(3)	0.8090(2)	0.24578(16)	1.0	.
H17B	H	0.0076	0.8075	0.2185	1.0	.
C18B	C	0.1518(3)	0.8811(2)	0.25050(17)	1.0	.
H18B	H	0.1500	0.9271	0.2262	1.0	.
C19B	C	0.2359(3)	0.8847(2)	0.28930(17)	1.0	.
H19B	H	0.2922	0.9332	0.2919	1.0	.
C20B	C	0.2411(2)	0.8161(2)	0.32648(15)	1.0	.
C21B	C	0.3259(2)	0.81665(19)	0.36507(15)	1.0	.
H21B	H	0.3829	0.8646	0.3676	1.0	.
C22B	C	0.3317(2)	0.74947(19)	0.40075(15)	1.0	.
C23B	C	0.5081(2)	0.81894(19)	0.43820(15)	1.0	.
C24B	C	0.5828(2)	0.87613(19)	0.43490(15)	1.0	.
C25B	C	0.6419(2)	1.04402(19)	0.38509(15)	1.0	.
H25B	H	0.6995	1.0914	0.3761	1.0	.
C26B	C	0.5756(3)	1.0828(2)	0.42846(17)	1.0	.
H26A	H	0.5527	1.0473	0.4642	1.0	.
H26B	H	0.6128	1.1408	0.4492	1.0	.
C27B	C	0.4869(3)	1.0844(3)	0.3802(2)	1.0	.
H27A	H	0.4257	1.0416	0.3889	1.0	.
H27B	H	0.4760	1.1411	0.3856	1.0	.
C28B	C	0.5130(3)	1.0644(2)	0.3108(2)	1.0	.
H28A	H	0.4524	1.0356	0.2801	1.0	.
H28B	H	0.5496	1.1169	0.2932	1.0	.
C29B	C	0.5771(3)	1.0071(2)	0.31876(17)	1.0	.
H29A	H	0.6186	1.0077	0.2815	1.0	.
H29B	H	0.5361	0.9481	0.3206	1.0	.
C30D	C	0.7783(2)	0.9256(2)	0.37466(16)	1.0	2
H30D	H	0.7956	0.8773	0.3935	1.0	2
C31D	C	0.7248(12)	0.8977(17)	0.3023(6)	1.0	2
H31C	H	0.6806	0.8388	0.2985	1.0	2
H31D	H	0.6839	0.9354	0.2914	1.0	2
C32D	C	0.8054(17)	0.904(2)	0.2543(8)	1.0	2
H32C	H	0.8072	0.8464	0.2365	1.0	2
H32D	H	0.7926	0.9343	0.2165	1.0	2
C33D	C	0.9023(15)	0.952(3)	0.2958(13)	1.0	2
H33C	H	0.9425	0.9965	0.2713	1.0	2
H33D	H	0.9415	0.9135	0.3069	1.0	2
C34D	C	0.8724(14)	0.9929(14)	0.3595(11)	1.0	2
H34C	H	0.8578	1.0466	0.3519	1.0	2
H34D	H	0.9260	1.0047	0.3967	1.0	2
C35B	C	0.7540(2)	1.0096(2)	0.51236(16)	1.0	.
H35B	H	0.7060	1.0311	0.5375	1.0	.
C36B	C	0.8507(3)	1.0844(2)	0.51537(18)	1.0	.
H36A	H	0.8811	1.0826	0.4730	1.0	.
H36B	H	0.8368	1.1395	0.5239	1.0	.
C37B	C	0.9190(3)	1.0719(3)	0.5724(2)	1.0	.
H37A	H	0.9060	1.0985	0.6154	1.0	.
H37B	H	0.9895	1.0970	0.5656	1.0	.
C38B	C	0.8944(3)	0.9757(3)	0.5715(2)	1.0	.
H38A	H	0.9308	0.9518	0.5386	1.0	.
H38B	H	0.9122	0.9608	0.6160	1.0	.
C39B	C	0.7834(2)	0.9424(2)	0.55202(18)	1.0	.
H39A	H	0.7476	0.9350	0.5922	1.0	.
H39B	H	0.7664	0.8870	0.5239	1.0	.
C40B	C	0.1672(2)	0.5302(2)	0.42184(15)	1.0	.
C41B	C	0.1006(2)	0.4646(2)	0.41385(16)	1.0	.
C42D	C	0.0146(2)	0.3082(2)	0.31551(17)	1.0	2
H42D	H	-0.0153	0.3388	0.2835	1.0	2
C43D	C	0.1186(11)	0.3133(12)	0.295(2)	1.0	2
H43C	H	0.1694	0.3361	0.3338	1.0	2
H43D	H	0.1344	0.3509	0.2597	1.0	2
C44D	C	0.1163(8)	0.2220(8)	0.2691(8)	1.0	2
H44C	H	0.1585	0.2218	0.2322	1.0	2
H44D	H	0.1391	0.1935	0.3051	1.0	2
C45D	C	0.0066(10)	0.1789(13)	0.2445(15)	1.0	2
H45C	H	-0.0095	0.1163	0.2411	1.0	2
H45D	H	-0.0117	0.1954	0.2007	1.0	2
C46D	C	-0.0456(14)	0.2139(7)	0.2999(16)	1.0	2
H46C	H	-0.1157	0.2077	0.2842	1.0	2
H46D	H	-0.0437	0.1840	0.3398	1.0	2
C47B	C	-0.1187(2)	0.3748(2)	0.41043(17)	1.0	.
H47B	H	-0.1167	0.4040	0.4562	1.0	.
C48B	C	-0.1488(3)	0.4293(2)	0.35978(18)	1.0	.
H48A	H	-0.1735	0.4737	0.3824	1.0	.
H48B	H	-0.0915	0.4569	0.3363	1.0	.
C49B	C	-0.2306(3)	0.3678(3)	0.3112(2)	1.0	.
H49A	H	-0.2024	0.3388	0.2761	1.0	.
H49B	H	-0.2744	0.3974	0.2900	1.0	.
C50B	C	-0.2871(3)	0.3047(2)	0.35549(19)	1.0	.
H50A	H	-0.3317	0.3290	0.3811	1.0	.
H50B	H	-0.3268	0.2511	0.3286	1.0	.
C51B	C	-0.2048(2)	0.2903(2)	0.40171(19)	1.0	.
H51A	H	-0.1824	0.2428	0.3818	1.0	.
H51B	H	-0.2284	0.2768	0.4453	1.0	.
C52B	C	0.0415(2)	0.2985(2)	0.46796(17)	1.0	.
H52B	H	-0.0079	0.2408	0.4619	1.0	.
C53B	C	0.1460(3)	0.2866(2)	0.46974(17)	1.0	.
H53A	H	0.1470	0.2393	0.4363	1.0	.
H53B	H	0.1955	0.3391	0.4608	1.0	.
C54B	C	0.1678(3)	0.2666(2)	0.54048(18)	1.0	.
H54A	H	0.1385	0.2054	0.5439	1.0	.
H54B	H	0.2402	0.2823	0.5536	1.0	.
C55B	C	0.1196(4)	0.3200(3)	0.58386(19)	1.0	.
H55A	H	0.1697	0.3732	0.6042	1.0	.
H55B	H	0.0898	0.2885	0.6200	1.0	.
C56B	C	0.0396(3)	0.3398(3)	0.53934(18)	1.0	.
H56A	H	0.0531	0.4020	0.5401	1.0	.
H56B	H	-0.0263	0.3165	0.5550	1.0	.
Si1A	Si	-0.17624(7)	0.53803(5)	0.08255(5)	1.0	.
C1A	C	0.0893(2)	0.75837(19)	0.06614(15)	1.0	.
Si2A	Si	0.49135(6)	1.15256(5)	0.08980(4)	1.0	.
C2A	C	0.1792(2)	0.76360(19)	0.10435(14)	1.0	.
C3A	C	0.1889(2)	0.6997(2)	0.14263(16)	1.0	.
H3A	H	0.1334	0.6511	0.1426	1.0	.
C4A	C	0.2772(2)	0.7051(2)	0.18068(15)	1.0	.
C5A	C	0.2862(3)	0.6395(2)	0.22022(17)	1.0	.
H5A	H	0.2309	0.5911	0.2211	1.0	.
C6A	C	0.3741(3)	0.6468(2)	0.25636(17)	1.0	.
H6A	H	0.3796	0.6028	0.2819	1.0	.
C7A	C	0.4571(3)	0.7185(2)	0.25669(17)	1.0	.
H7A	H	0.5175	0.7222	0.2825	1.0	.
C8A	C	0.4514(2)	0.7817(2)	0.22075(16)	1.0	.
H8A	H	0.5082	0.8293	0.2213	1.0	.
C9A	C	0.3609(2)	0.7783(2)	0.18156(15)	1.0	.
C10A	C	0.3517(2)	0.8427(2)	0.14498(15)	1.0	.
H10A	H	0.4070	0.8918	0.1465	1.0	.
C11A	C	0.2634(2)	0.83790(19)	0.10570(15)	1.0	.
C12A	C	0.2543(2)	0.90343(18)	0.06847(14)	1.0	.
C13A	C	0.1659(2)	0.89596(18)	0.02724(14)	1.0	.
C14A	C	0.1571(2)	0.95931(18)	-0.01182(14)	1.0	.
H14A	H	0.2125	1.0082	-0.0110	1.0	.
C15A	C	0.0710(2)	0.95350(18)	-0.05161(14)	1.0	.
C16A	C	0.0613(2)	1.01901(19)	-0.09026(15)	1.0	.
H16A	H	0.1165	1.0677	-0.0903	1.0	.
C17A	C	-0.0256(2)	1.0130(2)	-0.12709(15)	1.0	.
H17A	H	-0.0305	1.0576	-0.1521	1.0	.
C18A	C	-0.1089(2)	0.9406(2)	-0.12849(15)	1.0	.
H18A	H	-0.1693	0.9371	-0.1543	1.0	.
C19A	C	-0.1032(2)	0.8760(2)	-0.09317(15)	1.0	.
H19A	H	-0.1594	0.8276	-0.0950	1.0	.
C20A	C	-0.0137(2)	0.87978(18)	-0.05322(14)	1.0	.
C21A	C	-0.0063(2)	0.81635(18)	-0.01455(15)	1.0	.
H21A	H	-0.0623	0.7680	-0.0153	1.0	.
C22A	C	0.0817(2)	0.82158(18)	0.02579(14)	1.0	.
C23A	C	0.0033(2)	0.68820(19)	0.07012(15)	1.0	.
C24A	C	-0.0684(2)	0.62918(19)	0.07508(16)	1.0	.
C25C	C	-0.2581(3)	0.5780(2)	0.13868(18)	1.0	2
H25C	H	-0.2867	0.6030	0.1018	1.0	2
C26C	C	-0.2332(10)	0.6587(7)	0.1839(7)	1.0	2
H26E	H	-0.2277	0.7077	0.1585	1.0	2
H26F	H	-0.1704	0.6678	0.2126	1.0	2
C27C	C	-0.3217(10)	0.6447(8)	0.2248(9)	1.0	2
H27E	H	-0.2976	0.6501	0.2726	1.0	2
H27F	H	-0.3547	0.6893	0.2187	1.0	2
C28C	C	-0.3937(3)	0.5617(3)	0.2056(2)	1.0	2
H28E	H	-0.4601	0.5680	0.1926	1.0	2
H28F	H	-0.3987	0.5274	0.2433	1.0	2
C29C	C	-0.3572(3)	0.5183(3)	0.1463(2)	1.0	2
H29E	H	-0.3508	0.4624	0.1557	1.0	2
H29F	H	-0.4035	0.5103	0.1054	1.0	2
C30A	C	-0.2389(2)	0.4987(2)	-0.00393(17)	1.0	.
H30A	H	-0.1871	0.4889	-0.0321	1.0	.
C31A	C	-0.2849(3)	0.5610(2)	-0.0365(2)	1.0	.
H31C	H	-0.3156	0.5907	-0.0035	1.0	.
H31D	H	-0.2337	0.6037	-0.0558	1.0	.
C32A	C	-0.3603(3)	0.5084(3)	-0.0890(2)	1.0	.
H32C	H	-0.3295	0.4989	-0.1302	1.0	.
H32D	H	-0.4118	0.5367	-0.0992	1.0	.
C33A	C	-0.4059(3)	0.4252(2)	-0.0632(2)	1.0	.
H33C	H	-0.4242	0.3779	-0.1000	1.0	.
H33D	H	-0.4662	0.4266	-0.0417	1.0	.
C34A	C	-0.3244(3)	0.4145(2)	-0.01189(18)	1.0	.
H34C	H	-0.3510	0.4039	0.0313	1.0	.
H34D	H	-0.3005	0.3663	-0.0282	1.0	.
C35C	C	-0.1262(2)	0.45672(19)	0.11852(16)	1.0	2
H35C	H	-0.1836	0.4081	0.1260	1.0	2
C36C	C	-0.0590(12)	0.4221(16)	0.0755(6)	1.0	2
H36E	H	-0.0339	0.4602	0.0419	1.0	2
H36F	H	-0.0946	0.3648	0.0525	1.0	2
C37C	C	0.0257(10)	0.4189(12)	0.1259(7)	1.0	2
H37E	H	0.0880	0.4622	0.1196	1.0	2
H37F	H	0.0368	0.3623	0.1202	1.0	2
C38C	C	-0.0056(10)	0.4367(9)	0.1952(6)	1.0	2
H38E	H	-0.0451	0.3836	0.2104	1.0	2
H38F	H	0.0534	0.4630	0.2279	1.0	2
C39C	C	-0.0675(13)	0.4971(12)	0.1872(6)	1.0	2
H39E	H	-0.0257	0.5559	0.1859	1.0	2
H39F	H	-0.1119	0.4961	0.2228	1.0	2
C40A	C	0.3341(2)	0.98025(19)	0.07389(15)	1.0	.
C41A	C	0.3989(2)	1.0473(2)	0.07904(15)	1.0	.
C42A	C	0.4548(2)	1.2115(2)	0.02256(17)	1.0	.
H42A	H	0.5032	1.2696	0.0280	1.0	.
C43A	C	0.4563(3)	1.1691(2)	-0.04890(17)	1.0	.
H43C	H	0.5153	1.2010	-0.0690	1.0	.
H43D	H	0.4585	1.1100	-0.0478	1.0	.
C44A	C	0.3606(3)	1.1706(2)	-0.08937(18)	1.0	.
H44C	H	0.3747	1.1885	-0.1337	1.0	.
H44D	H	0.3113	1.1137	-0.0956	1.0	.
C45A	C	0.3223(3)	1.2341(2)	-0.04887(18)	1.0	.
H45C	H	0.2496	1.2219	-0.0589	1.0	.
H45D	H	0.3553	1.2928	-0.0576	1.0	.
C46A	C	0.3492(2)	1.2215(2)	0.02258(17)	1.0	.
H46C	H	0.3021	1.1701	0.0353	1.0	.
H46D	H	0.3491	1.2712	0.0538	1.0	.
C47A	C	0.4856(2)	1.2044(2)	0.17525(17)	1.0	.
H47A	H	0.5291	1.1841	0.2069	1.0	.
C48A	C	0.3823(2)	1.1844(2)	0.20119(17)	1.0	.
H48C	H	0.3318	1.1917	0.1675	1.0	.
H48D	H	0.3609	1.1257	0.2129	1.0	.
C49A	C	0.3981(3)	1.2491(3)	0.2630(2)	1.0	.
H49C	H	0.4277	1.2297	0.3020	1.0	.
H49D	H	0.3345	1.2588	0.2735	1.0	.
C50A	C	0.4694(4)	1.3299(3)	0.2441(2)	1.0	.
H50C	H	0.5183	1.3593	0.2826	1.0	.
H50D	H	0.4322	1.3691	0.2303	1.0	.
C51A	C	0.5226(3)	1.3027(2)	0.1859(2)	1.0	.
H51C	H	0.5956	1.3228	0.1973	1.0	.
H51D	H	0.5055	1.3262	0.1451	1.0	.
C52A	C	0.6160(2)	1.1359(2)	0.08218(17)	1.0	.
H52A	H	0.6163	1.1093	0.0358	1.0	.
C53A	C	0.6412(2)	1.0767(2)	0.13181(18)	1.0	.
H53C	H	0.5832	1.0523	0.1558	1.0	.
H53D	H	0.6603	1.0298	0.1078	1.0	.
C54A	C	0.7279(3)	1.1326(3)	0.18044(19)	1.0	.
H54C	H	0.7036	1.1597	0.2187	1.0	.
H54D	H	0.7703	1.0990	0.1974	1.0	.
C55A	C	0.7845(3)	1.1986(2)	0.13971(18)	1.0	.
H55C	H	0.8285	1.1757	0.1123	1.0	.
H55D	H	0.8253	1.2500	0.1689	1.0	.
C56A	C	0.7039(2)	1.2186(2)	0.0958(2)	1.0	.
H56C	H	0.7287	1.2363	0.0534	1.0	.
H56D	H	0.6826	1.2650	0.1188	1.0	.
