data_k13104s_config-2
loop_
 _symmetry_equiv_pos_as_xyz
'x, y, z'
'-x, y+1/2, -z+1/2'
'-x, -y, -z'
'x, -y-1/2, z-1/2'

_cell_length_a	13.9647(1)
_cell_length_b	19.6148(2)
_cell_length_c	14.1089(2)
_cell_angle_alpha	90
_cell_angle_beta	95.9827(5)
_cell_angle_gamma	90
loop_
 _atom_site_label
 _atom_site_type_symbol
 _atom_site_fract_x
 _atom_site_fract_y
 _atom_site_fract_z
 _atom_site_occupancy
 _atom_site_disorder_group
Si1	Si	0.23881(8)	0.21963(6)	0.74827(8)	1.0	.
Si2	Si	0.26463(10)	-0.13412(7)	0.07641(9)	1.0	.
Br1	Br	-0.12462(3)	0.09524(3)	0.45383(4)	1.0	.
Br2	Br	-0.11872(4)	-0.00077(3)	0.25905(5)	1.0	.
Br3	Br	0.63840(3)	0.03868(3)	0.33136(4)	1.0	.
Br4	Br	0.62914(3)	0.12969(2)	0.53148(4)	1.0	.
C1	C	0.2537(3)	0.09446(19)	0.4851(3)	1.0	.
C2	C	0.1676(3)	0.07040(19)	0.4352(3)	1.0	.
C3	C	0.0774(3)	0.0875(2)	0.4638(3)	1.0	.
H3	H	0.0746	0.1138	0.5200	1.0	.
C4	C	-0.0065(3)	0.0673(2)	0.4131(3)	1.0	.
C5	C	-0.0031(3)	0.0264(2)	0.3306(3)	1.0	.
C6	C	0.0827(3)	0.0072(2)	0.3019(3)	1.0	.
H6	H	0.0835	-0.0212	0.2475	1.0	.
C7	C	0.1718(3)	0.02881(19)	0.3518(3)	1.0	.
C8	C	0.2616(3)	0.01172(19)	0.3213(3)	1.0	.
C9	C	0.3474(3)	0.03791(19)	0.3689(3)	1.0	.
C10	C	0.4383(3)	0.0259(2)	0.3354(3)	1.0	.
H10	H	0.4422	-0.0018	0.2806	1.0	.
C11	C	0.5200(3)	0.0535(2)	0.3807(3)	1.0	.
C12	C	0.5161(3)	0.0926(2)	0.4656(3)	1.0	.
C13	C	0.4310(3)	0.10451(19)	0.4993(3)	1.0	.
H13	H	0.4296	0.1305	0.5560	1.0	.
C14	C	0.3435(3)	0.07925(19)	0.4527(3)	1.0	.
C15	C	0.2492(3)	0.1360(2)	0.5682(3)	1.0	.
C16	C	0.2441(3)	0.1706(2)	0.6365(3)	1.0	.
C17	C	0.3425(3)	0.1874(2)	0.8319(3)	1.0	.
H17	H	0.4013	0.1911	0.7975	1.0	.
C18	C	0.3321(5)	0.1126(3)	0.8578(5)	1.0	.
H18A	H	0.3910	0.0971	0.8955	1.0	.
H18B	H	0.3213	0.0854	0.7995	1.0	.
H18C	H	0.2772	0.1072	0.8952	1.0	.
C19	C	0.3612(4)	0.2295(3)	0.9221(3)	1.0	.
H19A	H	0.3034	0.2298	0.9559	1.0	.
H19B	H	0.3776	0.2763	0.9055	1.0	.
H19C	H	0.4148	0.2095	0.9632	1.0	.
C20	C	0.2567(3)	0.3122(2)	0.7213(3)	1.0	.
H20	H	0.2520	0.3380	0.7819	1.0	.
C21	C	0.3565(4)	0.3261(3)	0.6909(4)	1.0	.
H21A	H	0.3657	0.2988	0.6344	1.0	.
H21B	H	0.4056	0.3138	0.7429	1.0	.
H21C	H	0.3624	0.3746	0.6759	1.0	.
C22	C	0.1791(4)	0.3408(3)	0.6472(4)	1.0	.
H22A	H	0.1939	0.3884	0.6337	1.0	.
H22B	H	0.1163	0.3382	0.6721	1.0	.
H22C	H	0.1776	0.3140	0.5885	1.0	.
C23	C	0.1202(3)	0.2005(2)	0.7952(3)	1.0	.
H23	H	0.1304	0.1577	0.8334	1.0	.
C24	C	0.0925(4)	0.2552(3)	0.8647(4)	1.0	.
H24A	H	0.0745	0.2972	0.8296	1.0	.
H24B	H	0.1475	0.2643	0.9121	1.0	.
H24C	H	0.0379	0.2392	0.8970	1.0	.
C25	C	0.0384(4)	0.1854(3)	0.7186(4)	1.0	.
H25A	H	-0.0201	0.1749	0.7485	1.0	.
H25B	H	0.0556	0.1463	0.6806	1.0	.
H25C	H	0.0269	0.2253	0.6771	1.0	.
C26	C	0.2651(3)	-0.0332(2)	0.2400(3)	1.0	.
C27	C	0.2664(3)	-0.0720(2)	0.1750(3)	1.0	.
C28	C	0.3709(5)	-0.1120(3)	0.0092(4)	1.0	.
H28	H	0.4293	-0.1184	0.0556	1.0	.
C29	C	0.3743(7)	-0.0410(4)	-0.0233(6)	1.0	.
H29A	H	0.4258	-0.0359	-0.0650	1.0	.
H29B	H	0.3870	-0.0108	0.0319	1.0	.
H29C	H	0.3125	-0.0288	-0.0586	1.0	.
C30	C	0.3831(5)	-0.1613(3)	-0.0737(4)	1.0	.
H30A	H	0.3270	-0.1578	-0.1213	1.0	.
H30B	H	0.3887	-0.2081	-0.0494	1.0	.
H30C	H	0.4414	-0.1493	-0.1031	1.0	.
C31	C	0.2834(3)	-0.2211(2)	0.1308(3)	1.0	.
H31	H	0.2753	-0.2546	0.0772	1.0	.
C32	C	0.3843(4)	-0.2320(3)	0.1816(4)	1.0	.
H32A	H	0.3945	-0.2010	0.2362	1.0	.
H32B	H	0.4323	-0.2227	0.1373	1.0	.
H32C	H	0.3908	-0.2792	0.2039	1.0	.
C33	C	0.2093(4)	-0.2390(3)	0.1979(4)	1.0	.
H33A	H	0.2193	-0.2861	0.2200	1.0	.
H33B	H	0.1446	-0.2344	0.1644	1.0	.
H33C	H	0.2161	-0.2081	0.2527	1.0	.
C34'	C	0.1271(13)	-0.1366(9)	0.0277(13)	1.0	2
H34'	H	0.0907	-0.1517	0.0814	1.0	2
C35'	C	0.103(3)	-0.186(2)	-0.055(4)	1.0	2
H35D	H	0.0378	-0.2046	-0.0519	1.0	2
H35E	H	0.1493	-0.2239	-0.0501	1.0	2
H35F	H	0.1055	-0.1625	-0.1155	1.0	2
C36'	C	0.090(2)	-0.0666(11)	-0.002(2)	1.0	2
H36D	H	0.1313	-0.0471	-0.0476	1.0	2
H36E	H	0.0921	-0.0371	0.0541	1.0	2
H36F	H	0.0241	-0.0702	-0.0322	1.0	2
