data_k07299_config-2
loop_
 _symmetry_equiv_pos_as_xyz
'x, y, z'
'-x, y+1/2, -z+1/2'
'-x, -y, -z'
'x, -y-1/2, z-1/2'

_cell_length_a	13.4497(3)
_cell_length_b	18.6673(4)
_cell_length_c	14.8215(3)
_cell_angle_alpha	90.00
_cell_angle_beta	99.3443(8)
_cell_angle_gamma	90.00
loop_
 _atom_site_label
 _atom_site_type_symbol
 _atom_site_fract_x
 _atom_site_fract_y
 _atom_site_fract_z
 _atom_site_occupancy
 _atom_site_disorder_group
Si1	Si	0.86502(5)	0.62490(4)	0.10233(4)	1.0	.
Si2	Si	0.62985(5)	0.22102(4)	0.63157(4)	1.0	.
C1	C	0.78119(17)	0.49248(11)	0.33132(14)	1.0	.
C2	C	0.68077(17)	0.48580(12)	0.34570(15)	1.0	.
C3	C	0.60185(17)	0.52430(12)	0.29217(15)	1.0	.
C4'	C	0.50454(17)	0.51534(12)	0.30697(15)	1.0	2
N5'	N	0.4319(7)	0.5563(6)	0.2496(8)	1.0	2
C6'	C	0.3458(7)	0.5358(6)	0.2764(8)	1.0	2
H6'	H	0.2823	0.5538	0.2482	1.0	2
S7'	S	0.3563(3)	0.4750(3)	0.3645(4)	1.0	2
C8'	C	0.48180(17)	0.46770(12)	0.37620(16)	1.0	2
C9	C	0.55682(17)	0.43029(12)	0.42928(15)	1.0	.
C10	C	0.65787(17)	0.43786(12)	0.41578(14)	1.0	.
C11	C	0.73665(18)	0.39776(11)	0.46825(15)	1.0	.
C12	C	0.83802(17)	0.40702(11)	0.45671(14)	1.0	.
C13	C	0.91782(18)	0.37049(11)	0.51258(15)	1.0	.
C14'	C	1.01481(17)	0.38106(12)	0.49939(15)	1.0	2
N15'	N	1.0876(6)	0.3443(5)	0.5546(6)	1.0	2
C16'	C	1.1727(6)	0.3667(5)	0.5261(6)	1.0	2
H16'	H	1.2371	0.3510	0.5555	1.0	2
S17'	S	1.1605(3)	0.4251(3)	0.4338(4)	1.0	2
C18'	C	1.03677(17)	0.42751(12)	0.42843(15)	1.0	2
C19	C	0.96233(17)	0.46353(12)	0.37411(15)	1.0	.
C20	C	0.86057(17)	0.45493(11)	0.38662(14)	1.0	.
C21	C	0.80502(17)	0.53617(12)	0.25825(16)	1.0	.
C22	C	0.82892(17)	0.57120(13)	0.19649(16)	1.0	.
C23	C	0.99604(18)	0.59813(15)	0.08527(17)	1.0	.
H23	H	0.9877	0.5554	0.0441	1.0	.
C24	C	1.0652(2)	0.57476(18)	0.17207(19)	1.0	.
H24A	H	1.1335	0.5674	0.1587	1.0	.
H24B	H	1.0402	0.5299	0.1944	1.0	.
H24C	H	1.0665	0.6119	0.2189	1.0	.
C25	C	1.0467(2)	0.65610(15)	0.03476(18)	1.0	.
H25A	H	1.0526	0.7004	0.0706	1.0	.
H25B	H	1.0059	0.6650	-0.0252	1.0	.
H25C	H	1.1140	0.6398	0.0267	1.0	.
C26	C	0.85815(18)	0.72142(13)	0.13634(16)	1.0	.
H26	H	0.8765	0.7509	0.0851	1.0	.
C27	C	0.9318(2)	0.74103(15)	0.22241(18)	1.0	.
H27A	H	0.9243	0.7919	0.2364	1.0	.
H27B	H	1.0009	0.7319	0.2123	1.0	.
H27C	H	0.9175	0.7119	0.2738	1.0	.
C28	C	0.75157(19)	0.74283(14)	0.14817(19)	1.0	.
H28A	H	0.7298	0.7134	0.1962	1.0	.
H28B	H	0.7056	0.7353	0.0905	1.0	.
H28C	H	0.7508	0.7935	0.1654	1.0	.
C29	C	0.77111(19)	0.60245(14)	-0.00182(16)	1.0	.
H29	H	0.7042	0.6207	0.0092	1.0	.
C30	C	0.7925(2)	0.63750(15)	-0.09011(17)	1.0	.
H30A	H	0.8563	0.6192	-0.1047	1.0	.
H30B	H	0.7971	0.6895	-0.0818	1.0	.
H30C	H	0.7378	0.6261	-0.1402	1.0	.
C31	C	0.7606(3)	0.52198(16)	-0.0157(2)	1.0	.
H31A	H	0.7081	0.5121	-0.0682	1.0	.
H31B	H	0.7421	0.4999	0.0393	1.0	.
H31C	H	0.8248	0.5020	-0.0270	1.0	.
C32	C	0.70957(17)	0.34510(13)	0.53036(16)	1.0	.
C33	C	0.68102(17)	0.29840(13)	0.57658(16)	1.0	.
C34	C	0.73300(17)	0.18695(13)	0.72118(16)	1.0	.
H34	H	0.7058	0.1443	0.7500	1.0	.
C35	C	0.7628(2)	0.24221(14)	0.79677(17)	1.0	.
H35A	H	0.8180	0.2232	0.8417	1.0	.
H35B	H	0.7047	0.2525	0.8270	1.0	.
H35C	H	0.7847	0.2864	0.7702	1.0	.
C36	C	0.82483(18)	0.16160(14)	0.68103(19)	1.0	.
H36A	H	0.8491	0.2007	0.6462	1.0	.
H36B	H	0.8059	0.1207	0.6405	1.0	.
H36C	H	0.8784	0.1472	0.7307	1.0	.
C37'	C	0.555(2)	0.1604(15)	0.5505(18)	1.0	2
H37'	H	0.4882	0.1832	0.5302	1.0	2
C38'	C	0.608(2)	0.1533(14)	0.4661(18)	1.0	2
H38D	H	0.5614	0.1324	0.4154	1.0	2
H38E	H	0.6674	0.1223	0.4810	1.0	2
H38F	H	0.6295	0.2008	0.4484	1.0	2
C39'	C	0.537(6)	0.086(2)	0.587(5)	1.0	2
H39D	H	0.5204	0.0907	0.6490	1.0	2
H39E	H	0.5985	0.0573	0.5897	1.0	2
H39F	H	0.4816	0.0632	0.5471	1.0	2
C40	C	0.52124(18)	0.25361(13)	0.68564(16)	1.0	.
H40	H	0.5486	0.2934	0.7277	1.0	.
C41	C	0.4829(2)	0.19653(16)	0.7466(2)	1.0	.
H41A	H	0.4316	0.2177	0.7785	1.0	.
H41B	H	0.5393	0.1791	0.7916	1.0	.
H41C	H	0.4535	0.1565	0.7087	1.0	.
C42	C	0.43345(19)	0.28582(15)	0.62020(18)	1.0	.
H42A	H	0.4014	0.2485	0.5789	1.0	.
H42B	H	0.4584	0.3240	0.5844	1.0	.
H42C	H	0.3841	0.3057	0.6553	1.0	.
