data_x14342t_config-2
loop_
 _symmetry_equiv_pos_as_xyz
'x, y, z'
'-x, -y, -z'

_cell_length_a	15.8557(4)
_cell_length_b	17.5077(6)
_cell_length_c	17.5421(6)
_cell_angle_alpha	84.941(2)
_cell_angle_beta	72.851(2)
_cell_angle_gamma	71.326(2)
loop_
 _atom_site_label
 _atom_site_type_symbol
 _atom_site_fract_x
 _atom_site_fract_y
 _atom_site_fract_z
 _atom_site_occupancy
 _atom_site_disorder_group
Si1A	Si	0.14558(15)	0.29716(15)	-0.19417(13)	1.0	.
Si2A	Si	0.29236(15)	-0.19803(14)	0.28976(13)	1.0	.
C1A	C	0.1915(5)	0.1214(4)	0.0032(4)	1.0	.
C2A	C	0.2757(5)	0.1052(4)	0.0233(4)	1.0	.
C3A	C	0.3431(5)	0.1431(5)	-0.0145(5)	1.0	.
C4C	C	0.4231(5)	0.1270(5)	0.0064(5)	1.0	2
C5C	C	0.505(2)	0.156(2)	-0.019(2)	1.0	2
H5C	H	0.5117	0.1942	-0.0605	1.0	2
F1C	F	0.6463(17)	0.142(2)	0.008(2)	1.0	2
C6C	C	0.566(2)	0.125(3)	0.019(2)	1.0	2
S7C	S	0.5422(6)	0.0578(6)	0.0970(4)	1.0	2
C8C	C	0.4386(5)	0.0716(5)	0.0711(4)	1.0	2
C9A	C	0.3757(5)	0.0328(5)	0.1075(4)	1.0	.
C10A	C	0.2926(5)	0.0470(4)	0.0845(4)	1.0	.
C11A	C	0.2284(5)	0.0051(5)	0.1210(4)	1.0	.
C12A	C	0.1422(5)	0.0257(4)	0.1031(4)	1.0	.
C13A	C	0.0750(5)	-0.0129(5)	0.1406(4)	1.0	.
C14C	C	-0.0094(5)	0.0101(5)	0.1254(4)	1.0	2
C15C	C	-0.0925(19)	-0.0136(18)	0.1579(18)	1.0	2
H15C	H	-0.0967	-0.0544	0.1970	1.0	2
F2C	F	-0.2472(11)	0.0174(16)	0.1511(11)	1.0	2
C16C	C	-0.1613(15)	0.026(2)	0.129(2)	1.0	2
S17C	S	-0.1430(4)	0.1009(4)	0.0589(4)	1.0	2
C18C	C	-0.0304(5)	0.0717(5)	0.0690(4)	1.0	2
C19A	C	0.0350(5)	0.1088(5)	0.0285(5)	1.0	.
C20A	C	0.1238(5)	0.0848(4)	0.0440(4)	1.0	.
C21A	C	0.1756(5)	0.1766(5)	-0.0607(4)	1.0	.
C22A	C	0.1631(5)	0.2230(5)	-0.1153(5)	1.0	.
C23A	C	0.0240(7)	0.3694(6)	-0.1600(6)	1.0	.
H23A	H	0.0097	0.3786	-0.1020	1.0	.
H23B	H	0.0244	0.4215	-0.1867	1.0	.
C24A	C	-0.0548(6)	0.3470(6)	-0.1734(7)	1.0	.
H24A	H	-0.0396	0.3362	-0.2318	1.0	.
C25A	C	-0.1453(6)	0.4137(7)	-0.1501(7)	1.0	.
H25A	H	-0.1949	0.3955	-0.1571	1.0	.
H25B	H	-0.1406	0.4607	-0.1839	1.0	.
H25C	H	-0.1594	0.4286	-0.0942	1.0	.
C26A	C	-0.0647(7)	0.2688(7)	-0.1284(8)	1.0	.
H26A	H	-0.0785	0.2773	-0.0710	1.0	.
H26B	H	-0.0065	0.2248	-0.1467	1.0	.
H26C	H	-0.1152	0.2547	-0.1390	1.0	.
C27A	C	0.1578(7)	0.2466(7)	-0.2875(6)	1.0	.
H27A	H	0.1162	0.2127	-0.2735	1.0	.
H27B	H	0.1336	0.2893	-0.3235	1.0	.
C28A	C	0.2533(7)	0.1938(7)	-0.3359(6)	1.0	.
H28A	H	0.2979	0.2249	-0.3421	1.0	.
C29A	C	0.2555(9)	0.1742(9)	-0.4178(6)	1.0	.
H29A	H	0.2235	0.1339	-0.4144	1.0	.
H29B	H	0.3201	0.1526	-0.4501	1.0	.
H29C	H	0.2243	0.2231	-0.4427	1.0	.
C30A	C	0.2883(8)	0.1158(7)	-0.2931(7)	1.0	.
H30A	H	0.2888	0.1284	-0.2399	1.0	.
H30B	H	0.3514	0.0860	-0.3238	1.0	.
H30C	H	0.2474	0.0828	-0.2880	1.0	.
C31A	C	0.2358(8)	0.3493(7)	-0.2108(7)	1.0	.
H31A	H	0.2936	0.3145	-0.2468	1.0	.
H31B	H	0.2155	0.3995	-0.2403	1.0	.
C32A	C	0.2611(8)	0.3721(7)	-0.1406(7)	1.0	.
H32A	H	0.2871	0.3212	-0.1133	1.0	.
C33A	C	0.3374(12)	0.4128(13)	-0.1714(9)	1.0	.
H33A	H	0.3307	0.4417	-0.2209	1.0	.
H33B	H	0.3984	0.3717	-0.1819	1.0	.
H33C	H	0.3316	0.4511	-0.1312	1.0	.
C34A	C	0.1796(10)	0.4235(10)	-0.0814(8)	1.0	.
H34A	H	0.1774	0.4801	-0.0902	1.0	.
H34B	H	0.1845	0.4078	-0.0275	1.0	.
H34C	H	0.1228	0.4168	-0.0874	1.0	.
C35A	C	0.2499(5)	-0.0579(5)	0.1753(4)	1.0	.
C36A	C	0.2704(5)	-0.1145(5)	0.2196(5)	1.0	.
C37A	C	0.1775(6)	-0.2176(5)	0.3329(5)	1.0	.
H37A	H	0.1680	-0.2471	0.2921	1.0	.
H37B	H	0.1827	-0.2544	0.3787	1.0	.
C38A	C	0.0902(6)	-0.1464(6)	0.3613(5)	1.0	.
H38A	H	0.0872	-0.1067	0.3167	1.0	.
C39A	C	0.0059(8)	-0.1756(8)	0.3794(9)	1.0	.
H39A	H	-0.0017	-0.2028	0.4311	1.0	.
H39B	H	0.0146	-0.2133	0.3376	1.0	.
H39C	H	-0.0495	-0.1294	0.3812	1.0	.
C40A	C	0.0878(8)	-0.1040(8)	0.4328(7)	1.0	.
H40A	H	0.1112	-0.1439	0.4704	1.0	.
H40B	H	0.0238	-0.0718	0.4586	1.0	.
H40C	H	0.1267	-0.0685	0.4160	1.0	.
C41A	C	0.3363(6)	-0.1658(6)	0.3665(5)	1.0	.
H41A	H	0.2987	-0.1094	0.3819	1.0	.
H41B	H	0.3237	-0.1992	0.4146	1.0	.
C42A	C	0.4381(7)	-0.1702(7)	0.3451(6)	1.0	.
H42A	H	0.4748	-0.2286	0.3368	1.0	.
C43A	C	0.4705(8)	-0.1290(8)	0.2700(6)	1.0	.
H43A	H	0.4386	-0.0709	0.2762	1.0	.
H43B	H	0.4568	-0.1498	0.2265	1.0	.
H43C	H	0.5376	-0.1391	0.2576	1.0	.
C44A	C	0.4592(7)	-0.1418(8)	0.4140(6)	1.0	.
H44A	H	0.5265	-0.1539	0.4028	1.0	.
H44B	H	0.4357	-0.1696	0.4627	1.0	.
H44C	H	0.4292	-0.0836	0.4213	1.0	.
C45A	C	0.3804(6)	-0.2916(5)	0.2381(5)	1.0	.
H45A	H	0.4335	-0.2760	0.2026	1.0	.
H45B	H	0.4036	-0.3275	0.2793	1.0	.
C46A	C	0.3527(6)	-0.3409(5)	0.1890(6)	1.0	.
H46A	H	0.2967	-0.3543	0.2234	1.0	.
C47A	C	0.3288(7)	-0.2962(6)	0.1157(6)	1.0	.
H47A	H	0.2748	-0.2482	0.1327	1.0	.
H47B	H	0.3144	-0.3318	0.0846	1.0	.
H47C	H	0.3818	-0.2799	0.0827	1.0	.
C48A	C	0.4295(7)	-0.4199(6)	0.1594(7)	1.0	.
H48A	H	0.4866	-0.4082	0.1291	1.0	.
H48B	H	0.4104	-0.4484	0.1250	1.0	.
H48C	H	0.4407	-0.4538	0.2052	1.0	.
Si1B	Si	0.52769(14)	0.69785(13)	0.79512(12)	1.0	.
Si2B	Si	0.97004(16)	0.19475(17)	0.30825(15)	1.0	.
C1B	C	0.6929(5)	0.4939(4)	0.6227(4)	1.0	.
C2B	C	0.7907(5)	0.4726(4)	0.6046(4)	1.0	.
C3B	C	0.8341(5)	0.5110(5)	0.6430(4)	1.0	.
C4D	C	0.9275(5)	0.4902(5)	0.6266(4)	1.0	2
C5D	C	0.991(2)	0.514(2)	0.659(2)	1.0	2
H5D	H	0.9703	0.5516	0.7014	1.0	2
F1D	F	1.1518(12)	0.490(2)	0.6385(18)	1.0	2
C6D	C	1.0780(13)	0.477(2)	0.624(2)	1.0	2
S7D	S	1.1047(5)	0.4042(6)	0.5510(6)	1.0	2
C8D	C	0.9856(5)	0.4269(5)	0.5686(4)	1.0	2
C9B	C	0.9470(5)	0.3903(4)	0.5292(4)	1.0	.
C10B	C	0.8486(5)	0.4118(4)	0.5458(4)	1.0	.
C11B	C	0.8063(5)	0.3750(4)	0.5054(4)	1.0	.
C12B	C	0.7097(5)	0.3929(4)	0.5263(4)	1.0	.
C13B	C	0.6667(6)	0.3542(4)	0.4874(4)	1.0	.
C14D	C	0.565(2)	0.373(4)	0.510(3)	1.0	2
C15D	C	0.508(2)	0.342(2)	0.4836(19)	1.0	2
H15D	H	0.5302	0.3044	0.4407	1.0	2
F2D	F	0.3478(12)	0.3555(19)	0.5090(17)	1.0	2
C16D	C	0.4202(14)	0.370(2)	0.525(3)	1.0	2
S17D	S	0.3933(4)	0.4419(5)	0.5971(4)	1.0	2
C18D	C	0.512(2)	0.437(3)	0.570(5)	1.0	2
C19B	C	0.5541(5)	0.4684(5)	0.6086(4)	1.0	.
C20B	C	0.6515(5)	0.4524(4)	0.5858(4)	1.0	.
C21B	C	0.6359(5)	0.5578(5)	0.6770(4)	1.0	.
C22B	C	0.5900(5)	0.6137(5)	0.7225(5)	1.0	.
C23B	C	0.4306(6)	0.6707(5)	0.8715(5)	1.0	.
H23C	H	0.4544	0.6135	0.8860	1.0	.
H23D	H	0.4138	0.7035	0.9200	1.0	.
C24B	C	0.3425(6)	0.6818(6)	0.8479(5)	1.0	.
H24B	H	0.3188	0.7397	0.8335	1.0	.
C25B	C	0.2684(7)	0.6644(9)	0.9181(6)	1.0	.
H25D	H	0.2111	0.6745	0.9029	1.0	.
H25E	H	0.2566	0.6996	0.9631	1.0	.
H25F	H	0.2896	0.6079	0.9337	1.0	.
C26B	C	0.3590(6)	0.6319(7)	0.7766(5)	1.0	.
H26D	H	0.3974	0.6515	0.7294	1.0	.
H26E	H	0.2993	0.6362	0.7678	1.0	.
H26F	H	0.3909	0.5754	0.7859	1.0	.
C27B	C	0.4747(6)	0.7933(5)	0.7465(5)	1.0	.
H27C	H	0.4412	0.7800	0.7126	1.0	.
H27D	H	0.4275	0.8300	0.7892	1.0	.
C28B	C	0.5373(6)	0.8409(6)	0.6950(5)	1.0	.
H28B	H	0.5752	0.8500	0.7278	1.0	.
C29B	C	0.4804(10)	0.9208(7)	0.6754(9)	1.0	.
H29D	H	0.5196	0.9559	0.6563	1.0	.
H29E	H	0.4307	0.9448	0.7232	1.0	.
H29F	H	0.4532	0.9148	0.6338	1.0	.
C30B	C	0.6033(7)	0.7934(7)	0.6225(6)	1.0	.
H30D	H	0.5683	0.7783	0.5919	1.0	.
H30E	H	0.6452	0.7446	0.6389	1.0	.
H30F	H	0.6397	0.8263	0.5891	1.0	.
C31B	C	0.6186(6)	0.7110(5)	0.8353(5)	1.0	.
H31C	H	0.6579	0.7363	0.7931	1.0	.
H31D	H	0.5870	0.7500	0.8802	1.0	.
C32B	C	0.6833(5)	0.6367(6)	0.8649(5)	1.0	.
H32B	H	0.7041	0.5924	0.8249	1.0	.
C33B	C	0.7683(7)	0.6540(7)	0.8712(7)	1.0	.
H33D	H	0.7498	0.6965	0.9111	1.0	.
H33E	H	0.8002	0.6719	0.8193	1.0	.
H33F	H	0.8102	0.6050	0.8872	1.0	.
C34B	C	0.6336(7)	0.6075(7)	0.9449(6)	1.0	.
H34D	H	0.6771	0.5607	0.9624	1.0	.
H34E	H	0.5815	0.5923	0.9390	1.0	.
H34F	H	0.6103	0.6509	0.9847	1.0	.
C35B	C	0.8631(5)	0.3177(5)	0.4436(5)	1.0	.
C36B	C	0.9098(6)	0.2691(5)	0.3901(5)	1.0	.
C37D	C	0.8800(13)	0.1642(11)	0.2890(11)	1.0	2
H37E	H	0.8389	0.2111	0.2680	1.0	2
H37F	H	0.9090	0.1220	0.2470	1.0	2
C38D	C	0.8214(13)	0.1321(13)	0.3611(14)	1.0	2
H38D	H	0.8045	0.1694	0.4070	1.0	2
C39D	C	0.7307(15)	0.128(2)	0.3484(16)	1.0	2
H39G	H	0.6954	0.1073	0.3966	1.0	2
H39H	H	0.6936	0.1826	0.3376	1.0	2
H39I	H	0.7454	0.0928	0.3031	1.0	2
C40D	C	0.875(2)	0.0490(15)	0.3838(19)	1.0	2
H40G	H	0.8350	0.0299	0.4304	1.0	2
H40H	H	0.8936	0.0116	0.3390	1.0	2
H40I	H	0.9299	0.0516	0.3964	1.0	2
C41D	C	1.0960(16)	0.1536(16)	0.2948(14)	1.0	2
H41E	H	1.1168	0.0987	0.2721	1.0	2
H41F	H	1.1260	0.1867	0.2538	1.0	2
C42D	C	1.1342(15)	0.1479(14)	0.3649(14)	1.0	2
H42D	H	1.0871	0.1399	0.4146	1.0	2
C43D	C	1.223(2)	0.079(2)	0.356(4)	1.0	2
H43G	H	1.2457	0.0778	0.4027	1.0	2
H43H	H	1.2120	0.0283	0.3515	1.0	2
H43I	H	1.2702	0.0873	0.3078	1.0	2
C44D	C	1.154(4)	0.229(2)	0.373(5)	1.0	2
H44G	H	1.1794	0.2261	0.4181	1.0	2
H44H	H	1.1998	0.2381	0.3236	1.0	2
H44I	H	1.0967	0.2744	0.3808	1.0	2
C45D	C	1.0191(16)	0.2570(15)	0.2085(13)	1.0	2
H45E	H	1.0489	0.2924	0.2243	1.0	2
H45F	H	1.0682	0.2173	0.1694	1.0	2
C46D	C	0.9480(17)	0.3095(15)	0.1654(15)	1.0	2
H46D	H	0.9101	0.2765	0.1575	1.0	2
C47D	C	0.885(4)	0.380(2)	0.218(3)	1.0	2
H47G	H	0.8553	0.3610	0.2697	1.0	2
H47H	H	0.9204	0.4142	0.2246	1.0	2
H47I	H	0.8365	0.4117	0.1927	1.0	2
C48D	C	0.993(3)	0.338(3)	0.0857(19)	1.0	2
H48G	H	1.0343	0.2918	0.0518	1.0	2
H48H	H	0.9450	0.3698	0.0606	1.0	2
H48I	H	1.0288	0.3722	0.0925	1.0	2
