data_c17006_config-1
loop_
 _symmetry_equiv_pos_as_xyz
'x, y, z'
'-x+1/2, y+1/2, -z+1/2'
'-x, -y, -z'
'x-1/2, -y-1/2, z-1/2'

_cell_length_a	9.7390(3)
_cell_length_b	16.7280(5)
_cell_length_c	17.1206(5)
_cell_angle_alpha	90
_cell_angle_beta	106.436(1)
_cell_angle_gamma	90
loop_
 _atom_site_label
 _atom_site_type_symbol
 _atom_site_fract_x
 _atom_site_fract_y
 _atom_site_fract_z
 _atom_site_occupancy
 _atom_site_disorder_group
C1	C	0.0005(3)	0.56616(16)	0.55336(16)	1.0	.
C2	C	0.1253(3)	0.52490(16)	0.55476(15)	1.0	.
C3	C	0.1272(3)	0.45923(15)	0.50245(15)	1.0	.
C4	C	0.2690(3)	0.42564(18)	0.51438(17)	1.0	.
H4	H	0.291335	0.381769	0.484926	1.0	.
C5	C	0.3681(3)	0.46788(16)	0.57610(17)	1.0	.
S1	S	0.29257(9)	0.54539(4)	0.61912(4)	1.0	.
C6	C	0.5198(3)	0.45455(16)	0.60362(17)	1.0	1
C7	C	0.6214(8)	0.4910(5)	0.6596(5)	1.0	1
H7	H	0.599612	0.532643	0.691884	1.0	1
C8	C	0.7636(6)	0.4660(4)	0.6700(3)	1.0	1
C9	C	0.8917(6)	0.4917(4)	0.7251(5)	1.0	1
H9	H	0.892117	0.533844	0.762375	1.0	1
C10	C	1.0180(6)	0.4539(5)	0.7238(5)	1.0	1
H10	H	1.105988	0.470524	0.760454	1.0	1
C11	C	1.0174(6)	0.3928(5)	0.6702(5)	1.0	1
H11	H	1.105681	0.368172	0.670987	1.0	1
C12	C	0.8942(5)	0.3659(5)	0.6156(6)	1.0	1
H12	H	0.896633	0.324120	0.578529	1.0	1
C13	C	0.7633(6)	0.4024(10)	0.6162(10)	1.0	1
S2	S	0.59370(11)	0.37927(6)	0.55633(7)	1.0	1
C14	C	-0.0002(3)	0.63230(17)	0.60649(17)	1.0	.
C15	C	-0.0053(4)	0.6865(2)	0.6510(2)	1.0	.
Si1	Si	-0.0163(7)	0.7720(4)	0.7178(4)	1.0	1
C16	C	-0.1971(10)	0.7705(7)	0.7303(8)	1.0	1
H16C	H	-0.181958	0.767011	0.789886	1.0	1
H16D	H	-0.235071	0.824893	0.714546	1.0	1
C17	C	-0.3154(13)	0.7183(8)	0.6961(10)	1.0	1
H17C	H	-0.326685	0.718805	0.636759	1.0	1
H17D	H	-0.279973	0.664214	0.715105	1.0	1
C18	C	-0.4553(12)	0.7210(11)	0.703(1)	1.0	1
H18D	H	-0.521866	0.700264	0.652911	1.0	1
H18E	H	-0.480496	0.776340	0.711558	1.0	1
H18F	H	-0.461386	0.688135	0.749294	1.0	1
C19	C	0.1273(9)	0.7571(5)	0.8108(5)	1.0	1
H19C	H	0.218240	0.762055	0.796114	1.0	1
H19D	H	0.123772	0.802711	0.846987	1.0	1
C20	C	0.1393(10)	0.6822(5)	0.8618(5)	1.0	1
H20C	H	0.142334	0.635311	0.827067	1.0	1
H20D	H	0.052259	0.677406	0.880424	1.0	1
C21	C	0.270(3)	0.6800(19)	0.9356(11)	1.0	1
H21D	H	0.283309	0.625545	0.957539	1.0	1
H21E	H	0.255308	0.716607	0.977275	1.0	1
H21F	H	0.354449	0.696393	0.919602	1.0	1
C22	C	-0.0251(13)	0.8734(8)	0.6594(11)	1.0	1
H22C	H	-0.107057	0.872734	0.609518	1.0	1
H22D	H	-0.039171	0.918052	0.694270	1.0	1
C23	C	0.0871(13)	0.8831(6)	0.6411(7)	1.0	1
H23C	H	0.088390	0.850130	0.593223	1.0	1
H23D	H	0.170967	0.868959	0.687104	1.0	1
C24	C	0.087(2)	0.9855(10)	0.6182(14)	1.0	1
H24D	H	0.174187	0.998845	0.603377	1.0	1
H24E	H	0.083300	1.016785	0.666022	1.0	1
H24F	H	0.002973	0.997980	0.572600	1.0	1
