data_k13130s_config-0
loop_
 _symmetry_equiv_pos_as_xyz
'x, y, z'
'-x+1/2, y+1/2, -z+1/2'
'-x, -y, -z'
'x-1/2, -y-1/2, z-1/2'

_cell_length_a	11.3250(1)
_cell_length_b	11.4878(1)
_cell_length_c	19.1490(2)
_cell_angle_alpha	90
_cell_angle_beta	101.6764(5)
_cell_angle_gamma	90
loop_
 _atom_site_label
 _atom_site_type_symbol
 _atom_site_fract_x
 _atom_site_fract_y
 _atom_site_fract_z
 _atom_site_occupancy
 _atom_site_disorder_group
Si1	Si	0.24121(4)	0.07008(4)	0.51537(2)	1.0	.
Si2	Si	0.68672(4)	0.78182(3)	0.21025(2)	1.0	.
C1	C	0.39159(13)	0.34902(12)	0.39630(8)	1.0	.
C2	C	0.50767(13)	0.38981(12)	0.43028(7)	1.0	.
C3	C	0.56967(13)	0.34279(13)	0.49523(8)	1.0	.
H3	H	0.5322	0.2832	0.5174	1.0	.
C4	C	0.68334(13)	0.38051(13)	0.52786(8)	1.0	.
C5	C	0.74739(15)	0.33180(14)	0.59348(8)	1.0	.
H5	H	0.7105	0.2728	0.6165	1.0	.
C6	C	0.86010(15)	0.36870(16)	0.62324(9)	1.0	.
H6	H	0.9017	0.3351	0.6666	1.0	.
C7	C	0.91639(15)	0.45787(16)	0.58966(9)	1.0	.
H7	H	0.9959	0.4821	0.6106	1.0	.
C8	C	0.85827(14)	0.50855(15)	0.52851(8)	1.0	.
H8	H	0.8968	0.5691	0.5078	1.0	.
C9	C	0.73993(13)	0.47223(13)	0.49475(8)	1.0	.
C10	C	0.67903(13)	0.51997(13)	0.43094(8)	1.0	.
H10	H	0.7163	0.5806	0.4095	1.0	.
C11	C	0.56397(13)	0.48133(12)	0.39711(7)	1.0	.
C12	C	0.50255(13)	0.52819(12)	0.33067(7)	1.0	.
C13	C	0.38741(13)	0.48738(12)	0.29784(8)	1.0	.
C14	C	0.32368(14)	0.53305(13)	0.23143(8)	1.0	.
H14	H	0.3595	0.5929	0.2085	1.0	.
C15	C	0.21263(15)	0.49244(14)	0.20040(8)	1.0	.
H15	H	0.1715	0.5248	0.1565	1.0	.
C16	C	0.15768(14)	0.40162(15)	0.23334(8)	1.0	.
H16	H	0.0807	0.3728	0.2109	1.0	.
C17	C	0.21481(14)	0.35623(13)	0.29643(8)	1.0	.
H17	H	0.1766	0.2965	0.3181	1.0	.
C18	C	0.33116(13)	0.39624(12)	0.33108(7)	1.0	.
C19	C	0.33768(13)	0.25750(13)	0.42973(8)	1.0	.
C20	C	0.29732(14)	0.18054(14)	0.46076(8)	1.0	.
C21	C	0.13357(16)	-0.02587(15)	0.45577(9)	1.0	.
H21A	H	0.0682	0.0212	0.4283	1.0	.
H21B	H	0.0999	-0.0828	0.4845	1.0	.
H21C	H	0.1757	-0.0667	0.4231	1.0	.
C22	C	0.16703(15)	0.15137(15)	0.57880(9)	1.0	.
H22A	H	0.2265	0.2012	0.6092	1.0	.
H22B	H	0.1336	0.0961	0.6086	1.0	.
H22C	H	0.1020	0.1996	0.5520	1.0	.
C23	C	0.37287(17)	-0.01405(17)	0.56378(10)	1.0	.
H23A	H	0.4125	-0.0533	0.5293	1.0	.
H23B	H	0.3454	-0.0722	0.5944	1.0	.
H23C	H	0.4301	0.0390	0.5931	1.0	.
C24	C	0.56076(13)	0.61538(12)	0.29586(8)	1.0	.
C25	C	0.61184(14)	0.68539(13)	0.26513(8)	1.0	.
C26	C	0.61349(17)	0.75178(16)	0.11598(9)	1.0	.
H26A	H	0.6224	0.6691	0.1056	1.0	.
H26B	H	0.6519	0.7990	0.0842	1.0	.
H26C	H	0.5276	0.7715	0.1085	1.0	.
C27	C	0.66450(15)	0.93556(13)	0.23495(9)	1.0	.
H27A	H	0.5780	0.9519	0.2285	1.0	.
H27B	H	0.7005	0.9876	0.2045	1.0	.
H27C	H	0.7032	0.9483	0.2850	1.0	.
C28	C	0.85093(15)	0.74839(14)	0.22750(9)	1.0	.
H28A	H	0.8860	0.7618	0.2780	1.0	.
H28B	H	0.8906	0.7990	0.1980	1.0	.
H28C	H	0.8626	0.6668	0.2155	1.0	.
