data_x16241_config-1
loop_
 _symmetry_equiv_pos_as_xyz
'x, y, z'
'-x+1/2, y+1/2, -z+1/2'
'-x, -y, -z'
'x-1/2, -y-1/2, z-1/2'

_cell_length_a	10.2514(3)
_cell_length_b	17.6601(5)
_cell_length_c	16.7353(5)
_cell_angle_alpha	90
_cell_angle_beta	91.687(1)
_cell_angle_gamma	90
loop_
 _atom_site_label
 _atom_site_type_symbol
 _atom_site_fract_x
 _atom_site_fract_y
 _atom_site_fract_z
 _atom_site_occupancy
 _atom_site_disorder_group
C1	C	-0.00834(17)	0.46303(9)	0.42333(10)	1.0	.
C2	C	0.0992(11)	0.4582(9)	0.4652(7)	1.0	1
S3	S	0.23839(9)	0.41297(7)	0.43616(9)	1.0	1
C4	C	0.3243(16)	0.438(2)	0.5232(15)	1.0	1
C5	C	0.2475(5)	0.4787(3)	0.5706(3)	1.0	1
F1	F	0.2898(2)	0.50428(13)	0.64406(17)	1.0	1
C6	C	0.1191(12)	0.4932(9)	0.5401(7)	1.0	1
C7	C	0.458(2)	0.411(4)	0.540(2)	1.0	1
C8	C	0.5285(5)	0.3686(3)	0.4945(3)	1.0	1
H8	H	0.497151	0.350418	0.444094	1.0	1
C9	C	0.6577(12)	0.3505(11)	0.5258(9)	1.0	1
C10	C	0.7566(7)	0.3099(8)	0.4866(7)	1.0	1
H10	H	0.740793	0.285843	0.436463	1.0	1
C11	C	0.8785(8)	0.3072(6)	0.5260(4)	1.0	1
S12	S	1.01729(10)	0.26126(6)	0.49782(7)	1.0	1
C13	C	1.1059(11)	0.2921(17)	0.5796(9)	1.0	1
H13	H	1.195428	0.280217	0.589065	1.0	1
C14	C	1.0369(4)	0.3343(3)	0.6286(3)	1.0	1
H14	H	1.071274	0.355701	0.676843	1.0	1
C15	C	0.9021(8)	0.3442(6)	0.5996(4)	1.0	1
C16	C	0.8052(8)	0.3861(8)	0.6352(6)	1.0	1
H16	H	0.823272	0.413116	0.683312	1.0	1
C17	C	0.6806(15)	0.3880(16)	0.5992(9)	1.0	1
S18	S	0.54707(11)	0.44101(7)	0.62665(7)	1.0	1
C19	C	-0.0145(2)	0.42580(11)	0.34763(11)	1.0	.
C20	C	-0.01426(19)	0.39302(12)	0.28479(12)	1.0	.
Si1	Si	-0.0083(7)	0.3277(4)	0.1954(4)	1.0	1
C21	C	-0.0958(9)	0.3751(4)	0.1107(4)	1.0	1
H21A	H	-0.189653	0.377512	0.122710	1.0	1
H21B	H	-0.063548	0.427786	0.107140	1.0	1
C22	C	-0.0823(10)	0.3376(4)	0.0290(4)	1.0	1
H22C	H	-0.107031	0.283573	0.032775	1.0	1
H22D	H	0.009928	0.340105	0.013291	1.0	1
C23	C	-0.1692(8)	0.3764(4)	-0.0359(3)	1.0	1
H23C	H	-0.137899	0.428731	-0.044459	1.0	1
H23D	H	-0.260048	0.379202	-0.017617	1.0	1
C24	C	-0.1662(8)	0.3319(5)	-0.1156(4)	1.0	1
H24C	H	-0.191084	0.278628	-0.105808	1.0	1
H24D	H	-0.231517	0.353832	-0.153781	1.0	1
C25	C	-0.0338(7)	0.3337(4)	-0.1526(3)	1.0	1
H25A	H	-0.036831	0.304931	-0.202657	1.0	1
H25B	H	-0.009483	0.386282	-0.163506	1.0	1
H25C	H	0.030953	0.311072	-0.115529	1.0	1
C26	C	0.1734(5)	0.3193(3)	0.1788(5)	1.0	1
H26A	H	0.214924	0.296800	0.227429	1.0	1
H26B	H	0.186107	0.283357	0.134334	1.0	1
C27	C	0.2452(5)	0.3921(3)	0.1600(5)	1.0	1
H27A	H	0.221263	0.431227	0.199261	1.0	1
H27B	H	0.215792	0.409979	0.106369	1.0	1
C28	C	0.3945(5)	0.3836(3)	0.1615(4)	1.0	1
H28A	H	0.417742	0.338937	0.129169	1.0	1
H28B	H	0.432981	0.428808	0.136337	1.0	1
C29	C	0.4535(8)	0.3746(13)	0.2445(7)	1.0	1
H29A	H	0.412426	0.330697	0.270574	1.0	1
H29B	H	0.433664	0.420281	0.276196	1.0	1
C30	C	0.5997(7)	0.3630(7)	0.2453(9)	1.0	1
H30A	H	0.632440	0.357547	0.300585	1.0	1
H30B	H	0.620087	0.317207	0.215069	1.0	1
H30C	H	0.641337	0.406845	0.220694	1.0	1
C31	C	-0.0872(6)	0.2399(4)	0.2163(4)	1.0	1
H31A	H	-0.179761	0.250127	0.227589	1.0	1
H31B	H	-0.085256	0.207592	0.168009	1.0	1
C32	C	-0.0263(8)	0.1968(5)	0.2859(7)	1.0	1
H32A	H	-0.000641	0.233247	0.328490	1.0	1
H32B	H	0.054036	0.171586	0.268061	1.0	1
C33	C	-0.1169(6)	0.1369(4)	0.3210(4)	1.0	1
H33A	H	-0.197837	0.162197	0.337798	1.0	1
H33B	H	-0.141500	0.100239	0.278398	1.0	1
C34	C	-0.0592(8)	0.0946(4)	0.3906(5)	1.0	1
H34A	H	-0.026901	0.131300	0.431196	1.0	1
H34B	H	0.016496	0.064946	0.372619	1.0	1
C35	C	-0.1554(8)	0.0411(4)	0.4290(5)	1.0	1
H35A	H	-0.112077	0.015033	0.474115	1.0	1
H35B	H	-0.229707	0.070172	0.448092	1.0	1
H35C	H	-0.186282	0.003775	0.389477	1.0	1
