data_k01060_config-1
loop_
 _symmetry_equiv_pos_as_xyz
'x, y, z'
'-x, y, -z+1/2'
'x+1/2, y+1/2, z'
'-x+1/2, y+1/2, -z+1/2'
'-x, -y, -z'
'x, -y, z-1/2'
'-x+1/2, -y+1/2, -z'
'x+1/2, -y+1/2, z-1/2'

_cell_length_a	28.222(3)
_cell_length_b	18.904(2)
_cell_length_c	14.555(2)
_cell_angle_alpha	90.04
_cell_angle_beta	92.713(10)
_cell_angle_gamma	89.93
loop_
 _atom_site_label
 _atom_site_type_symbol
 _atom_site_fract_x
 _atom_site_fract_y
 _atom_site_fract_z
 _atom_site_occupancy
 _atom_site_disorder_group
Si1	Si	0.12361(2)	0.02790(3)	0.25176(4)	1.0	.
Si2	Si	0.13560(2)	0.38702(4)	0.91303(4)	1.0	.
C1	C	0.13456(7)	0.15801(11)	0.50884(13)	1.0	.
C2	C	0.18019(8)	0.17494(11)	0.54937(13)	1.0	.
C3	C	0.22163(8)	0.15235(11)	0.51073(14)	1.0	.
H3	H	0.2194	0.1262	0.4549	1.0	.
C4	C	0.26658(8)	0.16680(11)	0.55113(14)	1.0	.
C5	C	0.30859(8)	0.14509(11)	0.51050(15)	1.0	.
H5	H	0.3063	0.1211	0.4531	1.0	.
C6	C	0.35309(8)	0.15762(12)	0.55164(15)	1.0	.
C7	C	0.39566(8)	0.13616(12)	0.51066(16)	1.0	.
H7	H	0.3939	0.1129	0.4527	1.0	.
C8	C	0.43871(9)	0.14840(13)	0.55306(18)	1.0	.
H8	H	0.4667	0.1338	0.5246	1.0	.
C9	C	0.44208(9)	0.18297(14)	0.63980(18)	1.0	.
H9	H	0.4724	0.1909	0.6692	1.0	.
C10	C	0.40278(9)	0.20464(13)	0.68088(17)	1.0	.
H10	H	0.4059	0.2278	0.7388	1.0	.
C11	C	0.35639(8)	0.19351(12)	0.63910(16)	1.0	.
C12	C	0.31562(8)	0.21619(12)	0.67852(15)	1.0	.
H12	H	0.3183	0.2404	0.7357	1.0	.
C13	C	0.27000(8)	0.20473(11)	0.63709(14)	1.0	.
C14	C	0.22844(8)	0.22874(11)	0.67494(14)	1.0	.
H14	H	0.2307	0.2545	0.7310	1.0	.
C15	C	0.18357(8)	0.21619(11)	0.63329(13)	1.0	.
C16	C	0.14096(8)	0.24220(11)	0.67039(13)	1.0	.
C17	C	0.09638(8)	0.22641(11)	0.62790(13)	1.0	.
C18	C	0.05333(8)	0.25219(12)	0.66305(15)	1.0	.
H18	H	0.0547	0.2820	0.7156	1.0	.
C19	C	0.01061(8)	0.23501(13)	0.62304(15)	1.0	.
H19	H	-0.0176	0.2528	0.6479	1.0	.
C20	C	0.00753(8)	0.19068(12)	0.54422(15)	1.0	.
H20	H	-0.0227	0.1782	0.5174	1.0	.
C21	C	0.04734(8)	0.16617(12)	0.50732(14)	1.0	.
H21	H	0.0448	0.1372	0.4540	1.0	.
C22	C	0.09321(8)	0.18303(11)	0.54714(13)	1.0	.
C23	C	0.13109(7)	0.11402(12)	0.42824(14)	1.0	.
C24	C	0.12796(7)	0.07704(12)	0.36056(15)	1.0	.
C25	C	0.06285(8)	0.04766(13)	0.19965(15)	1.0	.
H25	H	0.0400	0.0326	0.2463	1.0	.
C26	C	0.05456(10)	0.12627(15)	0.1852(2)	1.0	.
H26A	H	0.0630	0.1517	0.2424	1.0	.
H26B	H	0.0211	0.1346	0.1678	1.0	.
H26C	H	0.0743	0.1432	0.1362	1.0	.
C27	C	0.04959(10)	0.00558(17)	0.11256(18)	1.0	.
H27A	H	0.0550	-0.0449	0.1242	1.0	.
H27B	H	0.0692	0.0211	0.0627	1.0	.
H27C	H	0.0161	0.0135	0.0949	1.0	.
C28	C	0.12935(8)	-0.06896(12)	0.27633(15)	1.0	.
H28	H	0.1286	-0.0940	0.2157	1.0	.
C29	C	0.08805(9)	-0.09740(14)	0.32965(17)	1.0	.
H29A	H	0.0580	-0.0853	0.2969	1.0	.
H29B	H	0.0889	-0.0762	0.3912	1.0	.
H29C	H	0.0908	-0.1489	0.3351	1.0	.
C30	C	0.17672(9)	-0.08809(14)	0.32739(17)	1.0	.
H30A	H	0.2031	-0.0705	0.2924	1.0	.
H30B	H	0.1792	-0.1396	0.3336	1.0	.
H30C	H	0.1780	-0.0663	0.3886	1.0	.
C31	C	0.17181(9)	0.06396(15)	0.17967(15)	1.0	.
H31	H	0.1586	0.1079	0.1499	1.0	.
C32	C	0.21662(9)	0.08639(16)	0.23537(18)	1.0	.
H32A	H	0.2081	0.1192	0.2841	1.0	.
H32B	H	0.2384	0.1098	0.1947	1.0	.
H32C	H	0.2321	0.0445	0.2629	1.0	.
C33	C	0.18349(10)	0.01406(16)	0.10166(18)	1.0	.
H33A	H	0.1543	0.0016	0.0664	1.0	.
H33B	H	0.1983	-0.0290	0.1273	1.0	.
H33C	H	0.2054	0.0375	0.0612	1.0	.
C34	C	0.14293(8)	0.28601(12)	0.75128(14)	1.0	.
C35	C	0.14176(8)	0.32373(12)	0.81852(15)	1.0	.
C36	C	0.0856(4)	0.3604(6)	0.9852(6)	1.0	1
H36	H	0.0579	0.3493	0.9422	1.0	1
C37	C	0.0984(5)	0.2921(6)	1.0380(5)	1.0	1
H37A	H	0.1087	0.2560	0.9948	1.0	1
H37B	H	0.0705	0.2750	1.0689	1.0	1
H37C	H	0.1241	0.3017	1.0839	1.0	1
C38	C	0.0693(4)	0.4190(7)	1.0513(7)	1.0	1
H38A	H	0.0601	0.4612	1.0158	1.0	1
H38B	H	0.0955	0.4308	1.0953	1.0	1
H38C	H	0.0422	0.4020	1.0845	1.0	1
C39	C	0.1187(6)	0.4724(6)	0.8510(9)	1.0	1
H39	H	0.1146	0.5086	0.9001	1.0	1
C40	C	0.0704(7)	0.4671(9)	0.7972(12)	1.0	1
H40A	H	0.0464	0.4495	0.8381	1.0	1
H40B	H	0.0730	0.4344	0.7454	1.0	1
H40C	H	0.0610	0.5139	0.7740	1.0	1
C41	C	0.1563(7)	0.5026(9)	0.7881(10)	1.0	1
H41A	H	0.1868	0.5067	0.8229	1.0	1
H41B	H	0.1462	0.5494	0.7658	1.0	1
H41C	H	0.1599	0.4708	0.7356	1.0	1
C42	C	0.19545(8)	0.40109(12)	0.96997(15)	1.0	.
H42	H	0.2138	0.4280	0.9244	1.0	.
C43	C	0.22398(10)	0.33378(15)	0.9896(2)	1.0	.
H43A	H	0.2240	0.3047	0.9338	1.0	.
H43B	H	0.2096	0.3071	1.0387	1.0	.
H43C	H	0.2567	0.3463	1.0088	1.0	.
C44	C	0.19557(9)	0.44785(14)	1.05558(16)	1.0	.
H44A	H	0.1775	0.4911	1.0417	1.0	.
H44B	H	0.2283	0.4602	1.0745	1.0	.
H44C	H	0.1810	0.4222	1.1055	1.0	.
