data_k08175_config-1
loop_
 _symmetry_equiv_pos_as_xyz
'x, y, z'
'-x+1/2, -y, z+1/2'
'x+1/2, -y+1/2, -z'
'-x, y+1/2, -z+1/2'

_cell_length_a	16.4539(3)
_cell_length_b	16.5160(4)
_cell_length_c	17.2590(4)
_cell_angle_alpha	90.00
_cell_angle_beta	90.00
_cell_angle_gamma	90.00
loop_
 _atom_site_label
 _atom_site_type_symbol
 _atom_site_fract_x
 _atom_site_fract_y
 _atom_site_fract_z
 _atom_site_occupancy
 _atom_site_disorder_group
Si1	Si	0.00353(3)	0.27599(3)	0.25048(4)	1.0	.
Si2	Si	0.44008(3)	0.84011(3)	0.24689(3)	1.0	.
F1	F	0.07082(8)	0.45289(8)	-0.02592(7)	1.0	.
F2	F	0.11942(8)	0.51610(8)	-0.16362(7)	1.0	.
F3	F	0.22795(8)	0.63779(8)	-0.16881(7)	1.0	.
F4	F	0.29062(7)	0.70161(7)	-0.03612(7)	1.0	.
F5	F	0.30330(8)	0.71886(8)	0.53378(7)	1.0	.
F6	F	0.24703(8)	0.66365(8)	0.67216(7)	1.0	.
F7	F	0.14204(8)	0.53955(8)	0.67874(6)	1.0	.
F8	F	0.08826(7)	0.46662(8)	0.54723(7)	1.0	.
C1	C	0.14205(11)	0.50982(11)	0.25763(12)	1.0	.
C2	C	0.16545(11)	0.54275(12)	0.18474(11)	1.0	.
C3	C	0.13337(12)	0.51207(12)	0.11475(11)	1.0	.
H3	H	0.0958	0.4684	0.1164	1.0	.
C4	C	0.15567(12)	0.54439(12)	0.04378(11)	1.0	.
C5	C	0.12463(12)	0.51482(13)	-0.02776(12)	1.0	.
C6	C	0.14806(13)	0.54555(13)	-0.09639(11)	1.0	.
C7	C	0.20513(13)	0.60969(13)	-0.09922(11)	1.0	.
C8	C	0.23594(12)	0.64068(12)	-0.03310(13)	1.0	.
C9	C	0.21357(12)	0.60986(12)	0.04109(11)	1.0	.
C10	C	0.24584(12)	0.64014(12)	0.10936(12)	1.0	.
H10	H	0.2847	0.6826	0.1071	1.0	.
C11	C	0.22233(12)	0.60929(12)	0.18204(11)	1.0	.
C12	C	0.25310(10)	0.64217(10)	0.25170(13)	1.0	.
C13	C	0.22551(12)	0.61294(12)	0.32437(11)	1.0	.
C14	C	0.25216(12)	0.64831(13)	0.39408(12)	1.0	.
H14	H	0.2903	0.6915	0.3923	1.0	.
C15	C	0.22404(12)	0.62159(12)	0.46492(12)	1.0	.
C16	C	0.24995(12)	0.65723(13)	0.53644(12)	1.0	.
C17	C	0.22210(13)	0.63056(13)	0.60549(12)	1.0	.
C18	C	0.16642(13)	0.56511(14)	0.60859(11)	1.0	.
C19	C	0.14028(12)	0.52937(13)	0.54322(12)	1.0	.
C20	C	0.16704(12)	0.55552(12)	0.46811(11)	1.0	.
C21	C	0.14150(12)	0.51906(12)	0.40020(12)	1.0	.
H21	H	0.1045	0.4750	0.4028	1.0	.
C22	C	0.16913(11)	0.54588(12)	0.32718(11)	1.0	.
C23	C	0.09198(11)	0.43883(11)	0.25903(11)	1.0	.
C24	C	0.05395(11)	0.37634(11)	0.25691(12)	1.0	.
C25	C	-0.05140(13)	0.26157(13)	0.34475(12)	1.0	.
H25	H	-0.0679	0.2035	0.3488	1.0	.
C26	C	-0.12826(13)	0.31458(13)	0.35426(12)	1.0	.
H26A	H	-0.1234	0.3651	0.3237	1.0	.
H26B	H	-0.1773	0.2849	0.3370	1.0	.
C27	C	-0.13289(14)	0.33324(15)	0.44071(13)	1.0	.
H27A	H	-0.1676	0.3810	0.4510	1.0	.
H27B	H	-0.1538	0.2864	0.4704	1.0	.
C28	C	-0.04418(14)	0.35032(15)	0.45978(13)	1.0	.
H28A	H	-0.0344	0.3473	0.5163	1.0	.
H28B	H	-0.0277	0.4045	0.4409	1.0	.
C29	C	0.00196(14)	0.28305(15)	0.41688(13)	1.0	.
H29A	H	0.0089	0.2351	0.4506	1.0	.
H29B	H	0.0563	0.3023	0.4005	1.0	.
C30	C	0.08411(12)	0.19696(12)	0.23443(13)	1.0	.
H30	H	0.1204	0.2164	0.1918	1.0	1
C31	C	0.13815(16)	0.17334(16)	0.30351(18)	1.0	1
H31A	H	0.1065	0.1756	0.3522	1.0	1
H31B	H	0.1845	0.2113	0.3079	1.0	1
C32	C	0.1695(3)	0.0859(3)	0.2893(4)	1.0	1
H32A	H	0.1579	0.0509	0.3345	1.0	1
H32B	H	0.2288	0.0859	0.2795	1.0	1
C33	C	0.12225(16)	0.05642(15)	0.21661(16)	1.0	1
H33A	H	0.1568	0.0597	0.1697	1.0	1
H33B	H	0.1039	-0.0002	0.2233	1.0	1
C34	C	0.04940(14)	0.11389(13)	0.21006(14)	1.0	.
H34A	H	0.0049	0.0969	0.2451	1.0	1
H34B	H	0.0286	0.1156	0.1563	1.0	1
C35	C	-0.06350(13)	0.27754(13)	0.16217(12)	1.0	.
H35	H	-0.0907	0.2235	0.1586	1.0	.
C36	C	-0.01587(15)	0.29069(16)	0.08621(13)	1.0	.
H36A	H	0.0219	0.3371	0.0909	1.0	.
H36B	H	0.0155	0.2417	0.0721	1.0	.
C37	C	-0.08218(15)	0.30792(16)	0.02631(13)	1.0	.
H37A	H	-0.1020	0.2568	0.0030	1.0	.
H37B	H	-0.0610	0.3431	-0.0155	1.0	.
C38	C	-0.15122(17)	0.35085(16)	0.07061(13)	1.0	.
H38A	H	-0.1542	0.4086	0.0557	1.0	.
H38B	H	-0.2042	0.3250	0.0592	1.0	.
C39	C	-0.13022(14)	0.34244(16)	0.15730(13)	1.0	.
H39A	H	-0.1103	0.3946	0.1783	1.0	.
H39B	H	-0.1787	0.3256	0.1872	1.0	.
C40	C	0.31143(11)	0.70649(11)	0.24946(12)	1.0	.
C41	C	0.36081(11)	0.76041(11)	0.24831(13)	1.0	.
C42	C	0.53981(12)	0.78560(12)	0.23627(12)	1.0	.
H42	H	0.5839	0.8272	0.2374	1.0	1
C43	C	0.55800(17)	0.72334(16)	0.30111(15)	1.0	1
H43A	H	0.5089	0.7131	0.3328	1.0	1
H43B	H	0.6021	0.7429	0.3353	1.0	1
C44	C	0.5848(5)	0.6443(4)	0.2567(4)	1.0	1
H44A	H	0.6294	0.6166	0.2847	1.0	1
H44B	H	0.5386	0.6064	0.2515	1.0	1
C45	C	0.6123(2)	0.6714(2)	0.18060(19)	1.0	1
H45A	H	0.6111	0.6267	0.1424	1.0	1
H45B	H	0.6679	0.6942	0.1830	1.0	1
C46	C	0.55026(14)	0.73583(14)	0.16137(14)	1.0	.
H46A	H	0.4980	0.7109	0.1458	1.0	1
H46B	H	0.5699	0.7706	0.1186	1.0	1
C47	C	0.43457(13)	0.89656(13)	0.34123(12)	1.0	.
H47	H	0.4781	0.9388	0.3401	1.0	.
C48	C	0.35399(16)	0.94012(16)	0.35737(14)	1.0	.
H48A	H	0.3072	0.9035	0.3488	1.0	.
H48B	H	0.3479	0.9884	0.3239	1.0	.
C49	C	0.36052(18)	0.9645(2)	0.44314(15)	1.0	.
H49A	H	0.3863	1.0184	0.4482	1.0	.
H49B	H	0.3060	0.9665	0.4673	1.0	.
C50	C	0.41249(19)	0.90006(16)	0.48159(14)	1.0	.
H50A	H	0.3793	0.8669	0.5174	1.0	.
H50B	H	0.4573	0.9254	0.5113	1.0	.
C51	C	0.44678(17)	0.84708(15)	0.41559(12)	1.0	.
H51A	H	0.5052	0.8357	0.4241	1.0	.
H51B	H	0.4171	0.7950	0.4125	1.0	.
C52	C	0.41679(13)	0.90882(13)	0.16288(12)	1.0	.
H52	H	0.4550	0.9558	0.1661	1.0	.
C53	C	0.42538(16)	0.87231(16)	0.08136(13)	1.0	.
H53A	H	0.4051	0.8159	0.0805	1.0	.
H53B	H	0.4829	0.8726	0.0647	1.0	.
C54	C	0.37308(18)	0.92713(18)	0.02757(15)	1.0	.
H54A	H	0.4083	0.9588	-0.0077	1.0	.
H54B	H	0.3356	0.8939	-0.0040	1.0	.
C55	C	0.32549(17)	0.98321(16)	0.08082(14)	1.0	.
H55A	H	0.2684	0.9880	0.0634	1.0	.
H55B	H	0.3503	1.0378	0.0819	1.0	.
C56	C	0.32997(14)	0.94353(15)	0.16059(14)	1.0	.
H56A	H	0.2889	0.9001	0.1658	1.0	.
H56B	H	0.3216	0.9838	0.2023	1.0	.
