data_k01136_config-0
loop_
 _symmetry_equiv_pos_as_xyz
'x, y, z'
'-x+1/2, -y, z+1/2'
'x+1/2, -y+1/2, -z'
'-x, y+1/2, -z+1/2'

_cell_length_a	14.2210(4)
_cell_length_b	15.1330(4)
_cell_length_c	16.8450(5)
_cell_angle_alpha	90.00
_cell_angle_beta	90.00
_cell_angle_gamma	90.00
loop_
 _atom_site_label
 _atom_site_type_symbol
 _atom_site_fract_x
 _atom_site_fract_y
 _atom_site_fract_z
 _atom_site_occupancy
 _atom_site_disorder_group
Si1	Si	0.88205(7)	0.75082(7)	0.59849(6)	1.0	.
Si2	Si	0.25335(7)	0.28742(6)	0.41417(6)	1.0	.
C1	C	0.6588(2)	0.5564(2)	0.5256(2)	1.0	.
C2	C	0.5962(2)	0.5239(2)	0.5846(2)	1.0	.
C3	C	0.6053(3)	0.5465(2)	0.6649(2)	1.0	.
H3	H	0.6526	0.5875	0.6799	1.0	.
C4	C	0.5481(3)	0.5113(2)	0.7228(2)	1.0	.
C5	C	0.5603(3)	0.5309(3)	0.8048(2)	1.0	.
H5	H	0.6072	0.5721	0.8205	1.0	.
C6	C	0.5062(3)	0.4917(3)	0.8606(3)	1.0	.
H6	H	0.5161	0.5050	0.9151	1.0	.
C7	C	0.4347(3)	0.4309(3)	0.8386(3)	1.0	.
H7	H	0.3976	0.4031	0.8783	1.0	.
C8	C	0.4194(3)	0.4124(3)	0.7603(3)	1.0	.
H8	H	0.3704	0.3727	0.7461	1.0	.
C9	C	0.4747(3)	0.4510(2)	0.7001(2)	1.0	.
C10	C	0.4625(3)	0.4322(2)	0.6207(2)	1.0	.
H10	H	0.4118	0.3950	0.6056	1.0	.
C11	C	0.5215(2)	0.4657(2)	0.5612(2)	1.0	.
C12	C	0.5103(3)	0.4434(2)	0.4793(2)	1.0	.
C13	C	0.5746(2)	0.4736(2)	0.4217(2)	1.0	.
C14	C	0.5663(3)	0.4508(2)	0.3403(2)	1.0	.
H14	H	0.5155	0.4145	0.3236	1.0	.
C15	C	0.6290(3)	0.4795(2)	0.2861(2)	1.0	.
H15	H	0.6225	0.4628	0.2320	1.0	.
C16	C	0.7046(3)	0.5347(2)	0.3097(3)	1.0	.
H16	H	0.7487	0.5546	0.2713	1.0	.
C17	C	0.7144(2)	0.5591(2)	0.3864(2)	1.0	.
H17	H	0.7653	0.5963	0.4009	1.0	.
C18	C	0.6503(3)	0.5304(2)	0.4461(2)	1.0	.
C19	C	0.7327(3)	0.6160(2)	0.5488(2)	1.0	.
C20	C	0.7945(3)	0.6674(2)	0.5684(2)	1.0	.
C21	C	0.9026(3)	0.8252(3)	0.5115(2)	1.0	.
H21	H	0.9494	0.8707	0.5286	1.0	.
C22	C	0.9457(3)	0.7764(3)	0.4395(2)	1.0	.
H22A	H	1.0035	0.7463	0.4559	1.0	.
H22B	H	0.9602	0.8191	0.3976	1.0	.
H22C	H	0.9006	0.7328	0.4195	1.0	.
C23	C	0.8137(3)	0.8747(3)	0.4867(3)	1.0	.
H23A	H	0.7880	0.9063	0.5326	1.0	.
H23B	H	0.7670	0.8324	0.4670	1.0	.
H23C	H	0.8291	0.9171	0.4447	1.0	.
C24	C	0.9909(2)	0.6935(2)	0.6327(2)	1.0	.
H24	H	0.9804	0.6776	0.6896	1.0	.
C25	C	1.0149(3)	0.6073(2)	0.5896(2)	1.0	.
H25A	H	0.9606	0.5675	0.5914	1.0	.
H25B	H	1.0687	0.5790	0.6156	1.0	.
H25C	H	1.0307	0.6202	0.5341	1.0	.
C26	C	1.0778(2)	0.7558(3)	0.6309(3)	1.0	.
H26A	H	1.0628	0.8109	0.6588	1.0	.
H26B	H	1.0944	0.7690	0.5757	1.0	.
H26C	H	1.1310	0.7268	0.6572	1.0	.
C27	C	0.8244(3)	0.8146(3)	0.6814(2)	1.0	.
H27	H	0.7635	0.8373	0.6599	1.0	.
C28	C	0.8800(3)	0.8953(3)	0.7094(3)	1.0	.
H28A	H	0.8945	0.9331	0.6638	1.0	.
H28B	H	0.9387	0.8758	0.7344	1.0	.
H28C	H	0.8425	0.9286	0.7479	1.0	.
C29	C	0.8000(3)	0.7563(3)	0.7523(2)	1.0	.
H29A	H	0.7635	0.7052	0.7342	1.0	.
H29B	H	0.7629	0.7903	0.7905	1.0	.
H29C	H	0.8581	0.7358	0.7777	1.0	.
C30	C	0.4314(3)	0.3898(2)	0.4562(2)	1.0	.
C31	C	0.3629(3)	0.3468(2)	0.4380(2)	1.0	.
C32	C	0.2428(3)	0.2832(3)	0.3029(2)	1.0	.
H32	H	0.2986	0.2497	0.2829	1.0	.
C33	C	0.2464(3)	0.3749(3)	0.2647(2)	1.0	.
H33A	H	0.3040	0.4052	0.2813	1.0	.
H33B	H	0.1915	0.4093	0.2816	1.0	.
H33C	H	0.2460	0.3688	0.2068	1.0	.
C34	C	0.1548(3)	0.2323(3)	0.2753(3)	1.0	.
H34A	H	0.1546	0.1732	0.2992	1.0	.
H34B	H	0.1557	0.2268	0.2173	1.0	.
H34C	H	0.0982	0.2644	0.2917	1.0	.
C35	C	0.2636(3)	0.1734(2)	0.4564(2)	1.0	.
H35	H	0.2013	0.1441	0.4489	1.0	.
C36	C	0.3366(3)	0.1170(3)	0.4126(2)	1.0	.
H36A	H	0.3220	0.1164	0.3557	1.0	.
H36B	H	0.3349	0.0565	0.4332	1.0	.
H36C	H	0.3994	0.1421	0.4208	1.0	.
C37	C	0.2843(3)	0.1729(2)	0.5455(2)	1.0	.
H37A	H	0.2367	0.2081	0.5733	1.0	.
H37B	H	0.3467	0.1982	0.5551	1.0	.
H37C	H	0.2826	0.1120	0.5653	1.0	.
C38	C	0.1541(3)	0.3512(3)	0.4590(3)	1.0	.
H38	H	0.1378	0.3984	0.4198	1.0	.
C39	C	0.0657(3)	0.2950(3)	0.4685(3)	1.0	.
H39A	H	0.0518	0.2652	0.4182	1.0	.
H39B	H	0.0127	0.3330	0.4832	1.0	.
H39C	H	0.0760	0.2508	0.5100	1.0	.
C40	C	0.1756(3)	0.3985(3)	0.5364(3)	1.0	.
H40A	H	0.2317	0.4353	0.5298	1.0	.
H40B	H	0.1868	0.3549	0.5783	1.0	.
H40C	H	0.1221	0.4359	0.5512	1.0	.
