data_k15136s_config-2
loop_
 _symmetry_equiv_pos_as_xyz
'x, y, z'
'-x+1/2, y+1/2, -z+1/2'
'-x, -y, -z'
'x-1/2, -y-1/2, z-1/2'

_cell_length_a	9.0677(4)
_cell_length_b	12.1740(5)
_cell_length_c	15.7028(6)
_cell_angle_alpha	90
_cell_angle_beta	103.959(2)
_cell_angle_gamma	90
loop_
 _atom_site_label
 _atom_site_type_symbol
 _atom_site_fract_x
 _atom_site_fract_y
 _atom_site_fract_z
 _atom_site_occupancy
 _atom_site_disorder_group
C1	C	0.5408(2)	0.59467(15)	0.55515(12)	1.0	.
C2'	C	0.6314(2)	0.55759(16)	0.50140(13)	1.0	2
C3'	C	0.7608(19)	0.6028(16)	0.4877(14)	1.0	2
H3'	H	0.8042	0.6684	0.5157	1.0	2
C4'	C	0.824(3)	0.5447(18)	0.4294(19)	1.0	2
H4'	H	0.9167	0.5650	0.4159	1.0	2
S5'	S	0.7175(13)	0.4312(9)	0.3831(7)	1.0	2
C6'	C	0.5935(2)	0.46380(16)	0.44647(12)	1.0	2
C7	C	0.5829(2)	0.68780(16)	0.61118(13)	1.0	.
C8	C	0.6200(3)	0.76500(18)	0.65941(14)	1.0	.
Si1	Si	0.68447(8)	0.88016(5)	0.73583(4)	1.0	.
C9'	C	0.6369(17)	0.8458(12)	0.8363(8)	1.0	2
H9'1	H	0.6662	0.9077	0.8778	1.0	2
H9'2	H	0.5253	0.8369	0.8249	1.0	2
C10'	C	0.7128(17)	0.741(1)	0.8798(8)	1.0	2
H10C	H	0.7000	0.6830	0.8344	1.0	2
H10D	H	0.8232	0.7553	0.9006	1.0	2
C11'	C	0.656(3)	0.697(3)	0.9558(18)	1.0	2
H11D	H	0.7129	0.6298	0.9782	1.0	2
H11E	H	0.6715	0.7518	1.0026	1.0	2
H11F	H	0.5479	0.6792	0.9361	1.0	2
C12'	C	0.6073(14)	1.0083(9)	0.6739(8)	1.0	2
H12C	H	0.6282	1.0711	0.7151	1.0	2
H12D	H	0.6637	1.0212	0.6281	1.0	2
C13'	C	0.4403(18)	1.0072(18)	0.6307(15)	1.0	2
H13C	H	0.4314	0.9717	0.5730	1.0	2
H13D	H	0.3944	0.9554	0.6656	1.0	2
C14'	C	0.336(4)	1.104(3)	0.613(2)	1.0	2
H14D	H	0.2329	1.0788	0.5844	1.0	2
H14E	H	0.3339	1.1395	0.6690	1.0	2
H14F	H	0.3712	1.1559	0.5753	1.0	2
C15'	C	0.9000(14)	0.8861(14)	0.7483(10)	1.0	2
H15C	H	0.9362	0.9573	0.7761	1.0	2
H15D	H	0.9463	0.8278	0.7903	1.0	2
C16'	C	0.964(2)	0.8739(19)	0.6678(13)	1.0	2
H16C	H	0.9429	0.9415	0.6318	1.0	2
H16D	H	0.9135	0.8117	0.6317	1.0	2
C17'	C	1.135(3)	0.854(8)	0.694(5)	1.0	2
H17D	H	1.1734	0.8463	0.6412	1.0	2
H17E	H	1.1851	0.9160	0.7290	1.0	2
H17F	H	1.1557	0.7864	0.7288	1.0	2
