data_x07138f_config-1
loop_
 _symmetry_equiv_pos_as_xyz
'x, y, z'
'-x, y+1/2, -z+1/2'
'-x, -y, -z'
'x, -y-1/2, z-1/2'

_cell_length_a	18.9286(12)
_cell_length_b	17.3736(11)
_cell_length_c	14.6253(8)
_cell_angle_alpha	90.00
_cell_angle_beta	111.554(3)
_cell_angle_gamma	90.00
loop_
 _atom_site_label
 _atom_site_type_symbol
 _atom_site_fract_x
 _atom_site_fract_y
 _atom_site_fract_z
 _atom_site_occupancy
 _atom_site_disorder_group
Si1	Si	-0.3032(3)	0.1893(4)	-0.3894(3)	1.0	.
Si2	Si	0.3128(2)	0.2659(3)	0.1852(3)	1.0	.
C1	C	-0.0632(7)	0.2244(8)	-0.1846(8)	1.0	.
C2	C	-0.0169(7)	0.1575(8)	-0.1456(8)	1.0	.
C3	C	-0.0413(7)	0.0848(8)	-0.1640(8)	1.0	.
H3	H	-0.0921	0.0769	-0.2081	1.0	.
C4	C	0.0025(7)	0.0187(8)	-0.1227(8)	1.0	.
C5	C	-0.0261(8)	-0.0585(8)	-0.1473(9)	1.0	.
H5	H	-0.0762	-0.0679	-0.1926	1.0	1
C6	C	0.0212(7)	-0.1165(6)	-0.1033(9)	1.0	1
S7	S	-0.0095(6)	-0.2089(5)	-0.1251(8)	1.0	1
C8	C	0.0866(14)	-0.2385(10)	-0.041(3)	1.0	1
H8	H	0.1065	-0.2893	-0.0307	1.0	1
C9	C	0.1146(16)	-0.1880(14)	-0.008(3)	1.0	1
H9	H	0.1575	-0.1954	0.0508	1.0	1
C10	C	0.0965(6)	-0.1046(6)	-0.0401(9)	1.0	1
C11	C	0.1248(9)	-0.0335(9)	-0.0192(10)	1.0	.
H11	H	0.1764	-0.0272	0.0228	1.0	1
C12	C	0.0787(8)	0.0345(9)	-0.0592(9)	1.0	.
C13	C	0.1047(7)	0.1056(8)	-0.0394(9)	1.0	.
H13	H	0.1560	0.1127	0.0035	1.0	.
C14	C	0.0603(7)	0.1721(8)	-0.0785(9)	1.0	.
C15	C	0.0848(7)	0.2486(8)	-0.0559(9)	1.0	.
C16	C	0.0393(7)	0.3151(8)	-0.0974(8)	1.0	.
C17	C	0.0651(7)	0.3895(8)	-0.0731(9)	1.0	.
H17	H	0.1153	0.3983	-0.0280	1.0	1
C18	C	0.0178(6)	0.4514(5)	-0.1143(8)	1.0	1
S19	S	0.0430(3)	0.5456(4)	-0.0916(5)	1.0	1
C20	C	-0.0534(11)	0.5731(9)	-0.1748(13)	1.0	1
H20	H	-0.0722	0.6239	-0.1916	1.0	1
C21	C	-0.0833(13)	0.5218(13)	-0.200(2)	1.0	1
H21	H	-0.1347	0.5282	-0.2424	1.0	1
C22	C	-0.0572(6)	0.4390(5)	-0.1783(8)	1.0	1
C23	C	-0.0819(7)	0.3665(8)	-0.2020(9)	1.0	.
H23	H	-0.1326	0.3595	-0.2465	1.0	1
C24	C	-0.0369(7)	0.2983(8)	-0.1648(8)	1.0	.
C25	C	-0.1414(7)	0.2097(8)	-0.2508(9)	1.0	.
C26	C	-0.2065(9)	0.2021(9)	-0.3037(10)	1.0	.
C27	C	-0.344(2)	0.290(2)	-0.402(3)	1.0	.
H27	H	-0.3498	0.2964	-0.3368	1.0	.
C28	C	-0.308(2)	0.358(2)	-0.408(3)	1.0	.
H28A	H	-0.2597	0.3536	-0.3500	1.0	.
H28B	H	-0.2929	0.3474	-0.4651	1.0	.
C29	C	-0.319(2)	0.427(2)	-0.414(3)	1.0	.
H29A	H	-0.2750	0.4535	-0.4206	1.0	.
H29B	H	-0.3257	0.4458	-0.3543	1.0	.
H29C	H	-0.3645	0.4387	-0.4714	1.0	.
C30	C	-0.430(2)	0.286(2)	-0.474(3)	1.0	.
H30A	H	-0.4530	0.2386	-0.4616	1.0	.
H30B	H	-0.4319	0.2857	-0.5422	1.0	.
H30C	H	-0.4573	0.3306	-0.4637	1.0	.
C31	C	-0.3486(18)	0.116(3)	-0.337(3)	1.0	.
H31	H	-0.3699	0.1565	-0.3058	1.0	.
C32	C	-0.4279(18)	0.083(3)	-0.395(3)	1.0	.
H32A	H	-0.4475	0.1052	-0.4613	1.0	.
H32B	H	-0.4623	0.0956	-0.3610	1.0	.
H32C	H	-0.4243	0.0269	-0.3998	1.0	.
C33	C	-0.347(2)	0.033(3)	-0.191(3)	1.0	.
H33A	H	-0.3094	0.0310	-0.1238	1.0	.
H33B	H	-0.3581	-0.0193	-0.2174	1.0	.
H33C	H	-0.3940	0.0566	-0.1901	1.0	.
C34	C	-0.3162(19)	0.081(3)	-0.255(3)	1.0	.
H34A	H	-0.2853	0.1211	-0.2103	1.0	.
H34B	H	-0.2792	0.0463	-0.2678	1.0	.
C35	C	-0.3024(12)	0.150(2)	-0.5030(18)	1.0	.
H35	H	-0.2905	0.1994	-0.5299	1.0	.
C36	C	-0.2487(13)	0.109(2)	-0.5142(17)	1.0	.
H36A	H	-0.2494	0.0599	-0.4803	1.0	.
H36B	H	-0.2009	0.1351	-0.4736	1.0	.
C37	C	-0.2373(13)	0.087(2)	-0.6042(16)	1.0	.
H37A	H	-0.1937	0.0520	-0.5879	1.0	.
H37B	H	-0.2277	0.1329	-0.6366	1.0	.
H37C	H	-0.2829	0.0607	-0.6486	1.0	.
C38	C	-0.3839(12)	0.143(2)	-0.5750(18)	1.0	.
H38A	H	-0.4156	0.1815	-0.5602	1.0	.
H38B	H	-0.4030	0.0911	-0.5691	1.0	.
H38C	H	-0.3855	0.1500	-0.6422	1.0	.
C39	C	0.1593(7)	0.2577(9)	0.0166(9)	1.0	.
C40	C	0.2229(8)	0.2652(9)	0.0790(10)	1.0	.
C41	C	0.2868(19)	0.236(3)	0.2932(18)	1.0	.
H41	H	0.3328	0.2319	0.3550	1.0	.
C42	C	0.2346(19)	0.159(3)	0.277(2)	1.0	.
H42A	H	0.1825	0.1743	0.2341	1.0	.
H42B	H	0.2527	0.1229	0.2376	1.0	.
C43	C	0.2281(19)	0.119(2)	0.348(2)	1.0	.
H43A	H	0.1980	0.0730	0.3216	1.0	.
H43B	H	0.2028	0.1505	0.3827	1.0	.
H43C	H	0.2787	0.1044	0.3937	1.0	.
C44	C	0.224(3)	0.311(3)	0.301(3)	1.0	.
H44A	H	0.2519	0.3600	0.3170	1.0	.
H44B	H	0.2040	0.2988	0.3523	1.0	.
H44C	H	0.1816	0.3162	0.2376	1.0	.
C45	C	0.3550(17)	0.3608(19)	0.200(2)	1.0	.
H45	H	0.3163	0.3943	0.2117	1.0	.
C46	C	0.4199(16)	0.3731(18)	0.282(2)	1.0	.
H46A	H	0.4621	0.3449	0.2726	1.0	.
H46B	H	0.4119	0.3494	0.3391	1.0	.
C47	C	0.4457(17)	0.4561(19)	0.309(2)	1.0	.
H47A	H	0.4920	0.4565	0.3686	1.0	.
H47B	H	0.4056	0.4848	0.3220	1.0	.
H47C	H	0.4560	0.4803	0.2550	1.0	.
C48	C	0.3607(19)	0.3930(19)	0.110(2)	1.0	.
H48A	H	0.3124	0.3856	0.0549	1.0	.
H48B	H	0.4013	0.3667	0.0958	1.0	.
H48C	H	0.3721	0.4481	0.1192	1.0	.
C49	C	0.3762(18)	0.195(2)	0.165(2)	1.0	.
H49	H	0.3452	0.1514	0.1743	1.0	.
C50	C	0.3752(19)	0.169(2)	0.088(2)	1.0	.
H50A	H	0.3692	0.2154	0.0456	1.0	.
H50B	H	0.3262	0.1417	0.0609	1.0	.
C51	C	0.426(2)	0.122(3)	0.064(2)	1.0	.
H51A	H	0.4244	0.1356	-0.0023	1.0	.
H51B	H	0.4119	0.0683	0.0649	1.0	.
H51C	H	0.4778	0.1304	0.1114	1.0	.
C52	C	0.4429(17)	0.174(2)	0.257(2)	1.0	.
H52A	H	0.4286	0.1799	0.3142	1.0	.
H52B	H	0.4857	0.2085	0.2632	1.0	.
H52C	H	0.4578	0.1208	0.2517	1.0	.
