data_k15193_config-2
loop_
 _symmetry_equiv_pos_as_xyz
'x, y, z'
'-x, y+1/2, -z+1/2'
'-x, -y, -z'
'x, -y-1/2, z-1/2'

_cell_length_a	15.6326(3)
_cell_length_b	6.4203(1)
_cell_length_c	14.8783(3)
_cell_angle_alpha	90
_cell_angle_beta	100.5158(11)
_cell_angle_gamma	90
loop_
 _atom_site_label
 _atom_site_type_symbol
 _atom_site_fract_x
 _atom_site_fract_y
 _atom_site_fract_z
 _atom_site_occupancy
 _atom_site_disorder_group
C1	C	0.41853(14)	0.6037(3)	0.46181(14)	1.0	.
C2	C	0.49912(14)	0.6812(3)	0.44997(13)	1.0	.
N1	N	0.51970(12)	0.8600(3)	0.40515(11)	1.0	.
C4	C	0.46638(17)	1.0165(3)	0.36346(14)	1.0	.
H4	H	0.4063	1.0118	0.3634	1.0	.
C5	C	0.50022(19)	1.1757(4)	0.32291(15)	1.0	.
H5	H	0.4636	1.2807	0.2934	1.0	.
C6	C	0.5913(2)	1.1857(4)	0.32452(18)	1.0	.
H6	H	0.6146	1.2966	0.2955	1.0	.
C7	C	0.64422(19)	1.0373(4)	0.36743(17)	1.0	.
H7	H	0.7044	1.0464	0.3686	1.0	.
C8	C	0.61082(16)	0.8677(4)	0.41081(15)	1.0	.
C9	C	0.64724(15)	0.6987(4)	0.45995(15)	1.0	.
H9	H	0.7069	0.6671	0.4737	1.0	.
C10	C	0.57971(14)	0.5805(3)	0.48625(14)	1.0	.
C11	C	0.33680(16)	0.6948(4)	0.42395(16)	1.0	.
C12	C	0.26607(18)	0.7662(5)	0.3921(2)	1.0	.
Si1'	Si	0.1579(6)	0.879(4)	0.3529(14)	1.0	2
C13'	C	0.1351(7)	1.105(2)	0.4182(12)	1.0	2
H13D	H	0.1466	1.0708	0.4829	1.0	2
H13E	H	0.1720	1.2195	0.4069	1.0	2
H13F	H	0.0745	1.1440	0.3998	1.0	2
C14'	C	0.1425(11)	0.895(4)	0.232(1)	1.0	2
H14C	H	0.1587	0.7614	0.2079	1.0	2
H14D	H	0.0807	0.9187	0.2078	1.0	2
C15'	C	0.190(2)	1.051(5)	0.2016(15)	1.0	2
H15D	H	0.1792	1.0518	0.1353	1.0	2
H15E	H	0.1737	1.1839	0.2239	1.0	2
H15F	H	0.2517	1.0265	0.2240	1.0	2
C16'	C	0.0702(7)	0.6876(19)	0.3705(11)	1.0	2
H16C	H	0.0147	0.7609	0.3525	1.0	2
H16D	H	0.0708	0.5767	0.3253	1.0	2
C17'	C	0.0664(14)	0.603(4)	0.4402(15)	1.0	2
H17D	H	0.0157	0.5131	0.4320	1.0	2
H17E	H	0.1185	0.5205	0.4593	1.0	2
H17F	H	0.0618	0.7066	0.4867	1.0	2
