data_x12014nx_config-1
loop_
 _symmetry_equiv_pos_as_xyz
'x, y, z'
'-x, y+1/2, -z+1/2'
'-x, -y, -z'
'x, -y-1/2, z-1/2'

_cell_length_a	17.2030(10)
_cell_length_b	9.2669(3)
_cell_length_c	29.6899(11)
_cell_angle_alpha	90.00
_cell_angle_beta	92.917(3)
_cell_angle_gamma	90.00
loop_
 _atom_site_label
 _atom_site_type_symbol
 _atom_site_fract_x
 _atom_site_fract_y
 _atom_site_fract_z
 _atom_site_occupancy
 _atom_site_disorder_group
Si1	Si	0.21032(11)	0.6563(2)	0.63380(7)	1.0	.
Si2	Si	0.88123(11)	0.45549(18)	0.61989(6)	1.0	.
C1	C	0.4628(4)	0.5887(6)	0.6148(2)	1.0	.
C2	C	0.4906(4)	0.4905(6)	0.5824(2)	1.0	.
C3	C	0.4407(4)	0.4253(6)	0.5498(2)	1.0	.
H3A	H	0.3870	0.4495	0.5486	1.0	.
C4	C	0.4680(4)	0.3257(6)	0.5191(2)	1.0	.
C5	C	0.4177(4)	0.2575(7)	0.4861(2)	1.0	.
H5	H	0.3637	0.2795	0.4845	1.0	1
C6	C	0.4469(4)	0.1605(7)	0.4569(2)	1.0	1
S7	S	0.3953(3)	0.0660(5)	0.41349(13)	1.0	1
C8	C	0.4821(9)	-0.015(3)	0.3989(8)	1.0	1
I1	I	0.47947(17)	-0.15527(11)	0.34378(3)	1.0	1
C9	C	0.545(2)	0.022(4)	0.4242(11)	1.0	1
H9	H	0.5955	-0.0151	0.4201	1.0	1
C10	C	0.5278(4)	0.1262(7)	0.4584(2)	1.0	1
C11	C	0.5779(4)	0.1875(6)	0.4900(2)	1.0	.
H11A	H	0.6314	0.1614	0.4914	1.0	1
C12	C	0.5500(4)	0.2905(7)	0.5208(2)	1.0	.
C13	C	0.5990(4)	0.3587(6)	0.5527(2)	1.0	.
H13A	H	0.6530	0.3373	0.5533	1.0	.
C14	C	0.5723(4)	0.4576(6)	0.5839(2)	1.0	.
C15	C	0.6232(4)	0.5206(6)	0.6175(2)	1.0	.
C16	C	0.5941(4)	0.6137(6)	0.6506(2)	1.0	.
C17	C	0.6438(4)	0.6708(7)	0.6859(2)	1.0	.
H17A	H	0.6977	0.6478	0.6873	1.0	1
C18	C	0.6145(4)	0.7586(7)	0.7177(2)	1.0	1
C19	C	0.6529(18)	0.824(5)	0.7571(13)	1.0	1
H19	H	0.7063	0.8087	0.7654	1.0	1
C20	C	0.6048(9)	0.912(3)	0.7818(8)	1.0	1
H20	H	0.6225	0.9675	0.8071	1.0	1
S21	S	0.5088(4)	0.9073(13)	0.7607(3)	1.0	1
C22	C	0.5334(4)	0.7948(6)	0.7156(2)	1.0	1
C23	C	0.4852(4)	0.7447(6)	0.6816(2)	1.0	.
H23	H	0.4321	0.7733	0.6798	1.0	1
C24	C	0.5132(4)	0.6503(6)	0.6485(2)	1.0	.
C25	C	0.3819(4)	0.6176(6)	0.6159(2)	1.0	.
C26	C	0.3145(4)	0.6376(7)	0.6210(2)	1.0	.
C27	C	0.2062(4)	0.6913(8)	0.6961(2)	1.0	.
H27A	H	0.1588	0.7489	0.7009	1.0	.
H27B	H	0.1995	0.5972	0.7113	1.0	.
C28	C	0.2751(5)	0.7685(8)	0.7201(2)	1.0	.
H28A	H	0.3229	0.7114	0.7145	1.0	.
C29	C	0.2870(6)	0.9209(9)	0.7014(3)	1.0	.
H29A	H	0.2952	0.9151	0.6690	1.0	.
H29B	H	0.3326	0.9652	0.7170	1.0	.
H29C	H	0.2408	0.9797	0.7063	1.0	.
C30	C	0.2668(5)	0.7724(12)	0.7711(3)	1.0	.
H30A	H	0.2625	0.6736	0.7826	1.0	.
H30B	H	0.2199	0.8269	0.7779	1.0	.
H30C	H	0.3126	0.8191	0.7857	1.0	.
C31	C	0.1582(4)	0.4824(7)	0.6204(3)	1.0	.
H31A	H	0.1038	0.4930	0.6293	1.0	.
H31B	H	0.1564	0.4692	0.5873	1.0	.
C32	C	0.1914(4)	0.3432(8)	0.6423(3)	1.0	.
H32A	H	0.2123	0.3677	0.6734	1.0	.
C33	C	0.1275(5)	0.2292(9)	0.6465(3)	1.0	.
H33A	H	0.1506	0.1396	0.6585	1.0	.
H33B	H	0.1023	0.2105	0.6167	1.0	.
H33C	H	0.0887	0.2645	0.6669	1.0	.
C34	C	0.2575(5)	0.2809(8)	0.6166(3)	1.0	.
H34A	H	0.2796	0.1975	0.6330	1.0	.
H34B	H	0.2978	0.3544	0.6137	1.0	.
H34C	H	0.2377	0.2505	0.5866	1.0	.
C35	C	0.1637(5)	0.8082(8)	0.6000(3)	1.0	1
H35A	H	0.1085	0.7835	0.5928	1.0	1
H35B	H	0.1648	0.8963	0.6189	1.0	1
C36	C	0.2035(6)	0.8426(10)	0.5549(3)	1.0	1
H36	H	0.2580	0.8750	0.5626	1.0	1
C37	C	0.1599(9)	0.9675(11)	0.5306(4)	1.0	1
H37A	H	0.1881	0.9971	0.5043	1.0	1
H37B	H	0.1563	1.0494	0.5513	1.0	1
H37C	H	0.1074	0.9357	0.5208	1.0	1
C38	C	0.2069(6)	0.7155(13)	0.5236(3)	1.0	1
H38A	H	0.1549	0.6732	0.5191	1.0	1
H38B	H	0.2429	0.6432	0.5367	1.0	1
H38C	H	0.2251	0.7474	0.4945	1.0	1
C39	C	0.7052(4)	0.4914(6)	0.6191(2)	1.0	.
C40	C	0.7745(4)	0.4751(7)	0.6206(2)	1.0	.
C41	C	0.9282(4)	0.4749(7)	0.6785(2)	1.0	.
H41A	H	0.8948	0.4234	0.6994	1.0	.
H41B	H	0.9784	0.4227	0.6789	1.0	.
C42	C	0.9442(5)	0.6240(8)	0.6980(3)	1.0	.
H42A	H	0.9752	0.6799	0.6764	1.0	.
C43	C	0.9917(5)	0.6130(9)	0.7431(3)	1.0	.
H43A	H	1.0410	0.5635	0.7384	1.0	.
H43B	H	0.9621	0.5583	0.7647	1.0	.
H43C	H	1.0024	0.7101	0.7549	1.0	.
C44	C	0.8685(5)	0.7060(8)	0.7052(3)	1.0	.
H44A	H	0.8381	0.7134	0.6765	1.0	.
H44B	H	0.8808	0.8029	0.7167	1.0	.
H44C	H	0.8382	0.6540	0.7271	1.0	.
C45	C	0.9229(4)	0.5980(7)	0.5829(2)	1.0	.
H45A	H	0.9116	0.6930	0.5963	1.0	.
H45B	H	0.9802	0.5863	0.5846	1.0	.
C46	C	0.8968(4)	0.6046(8)	0.5330(3)	1.0	.
H46A	H	0.8989	0.5043	0.5207	1.0	.
C47	C	0.9508(6)	0.6975(9)	0.5066(3)	1.0	.
H47A	H	1.0040	0.6595	0.5103	1.0	.
H47B	H	0.9497	0.7968	0.5180	1.0	.
H47C	H	0.9338	0.6962	0.4746	1.0	.
C48	C	0.8146(6)	0.6584(12)	0.5254(3)	1.0	.
H48A	H	0.7784	0.5882	0.5375	1.0	.
H48B	H	0.8027	0.6709	0.4930	1.0	.
H48C	H	0.8090	0.7511	0.5408	1.0	.
C49	C	0.9079(4)	0.2727(7)	0.5984(2)	1.0	.
H49A	H	0.8825	0.2604	0.5680	1.0	.
H49B	H	0.9648	0.2711	0.5949	1.0	.
C50	C	0.8867(5)	0.1409(7)	0.6273(3)	1.0	.
H50A	H	0.8963	0.1668	0.6598	1.0	.
C51	C	0.8018(5)	0.0993(8)	0.6197(3)	1.0	.
H51A	H	0.7904	0.0164	0.6388	1.0	.
H51B	H	0.7912	0.0737	0.5879	1.0	.
H51C	H	0.7688	0.1809	0.6275	1.0	.
C52	C	0.9380(5)	0.0123(8)	0.6169(4)	1.0	.
H52A	H	0.9225	-0.0711	0.6346	1.0	.
H52B	H	0.9925	0.0362	0.6247	1.0	.
H52C	H	0.9318	-0.0107	0.5847	1.0	.
