data_x13372_config-2
loop_
 _symmetry_equiv_pos_as_xyz
'x, y, z'
'-x, -y, -z'

_cell_length_a	8.1892(2)
_cell_length_b	8.4696(2)
_cell_length_c	14.2025(3)
_cell_angle_alpha	107.193(2)
_cell_angle_beta	99.784(2)
_cell_angle_gamma	91.845(2)
loop_
 _atom_site_label
 _atom_site_type_symbol
 _atom_site_fract_x
 _atom_site_fract_y
 _atom_site_fract_z
 _atom_site_occupancy
 _atom_site_disorder_group
Si1	Si	0.11056(11)	0.61263(12)	0.82208(6)	1.0	.
C1	C	0.3942(3)	0.5298(4)	0.57174(19)	1.0	.
C2	C	0.4963(3)	0.3975(4)	0.56202(19)	1.0	.
C3	C	0.4961(3)	0.2915(4)	0.62279(19)	1.0	.
H3	H	0.4246	0.3098	0.6704	1.0	.
C4	C	0.5948(4)	0.1652(4)	0.61488(19)	1.0	.
C5	C	0.7053(3)	0.1363(4)	0.5438(2)	1.0	.
C6	C	0.7080(3)	0.2342(4)	0.48424(19)	1.0	.
H6	H	0.7806	0.2137	0.4372	1.0	.
C7	C	0.6047(3)	0.3670(4)	0.49038(19)	1.0	.
C8	C	0.2939(4)	0.5614(4)	0.6475(2)	1.0	.
C9	C	0.2188(4)	0.5842(4)	0.7148(2)	1.0	.
C10'	C	-0.0831(8)	0.7027(9)	0.8000(5)	1.0	2
H10'	H	-0.0591	0.8248	0.8139	1.0	2
C11'	C	-0.1589(11)	0.6262(12)	0.6897(6)	1.0	2
H11D	H	-0.0804	0.6464	0.6487	1.0	2
H11E	H	-0.2621	0.6764	0.6740	1.0	2
H11F	H	-0.1831	0.5064	0.6751	1.0	2
C12'	C	-0.2036(18)	0.6746(17)	0.8662(8)	1.0	2
H12D	H	-0.1525	0.7252	0.9370	1.0	2
H12E	H	-0.2288	0.5553	0.8528	1.0	2
H12F	H	-0.3067	0.7255	0.8511	1.0	2
C13'	C	0.1621(11)	0.8149(11)	0.9102(6)	1.0	2
H13'	H	0.0893	0.8939	0.8871	1.0	2
C14'	C	0.3423(13)	0.8722(13)	0.9169(7)	1.0	2
H14D	H	0.3606	0.8711	0.8504	1.0	2
H14E	H	0.4149	0.7973	0.9414	1.0	2
H14F	H	0.3678	0.9850	0.9634	1.0	2
C15'	C	0.137(2)	0.819(3)	1.0176(11)	1.0	2
H15D	H	0.0207	0.7829	1.0150	1.0	2
H15E	H	0.1637	0.9323	1.0634	1.0	2
H15F	H	0.2100	0.7444	1.0418	1.0	2
C16	C	0.1275(3)	0.4184(4)	0.85873(19)	1.0	.
H16	H	0.0678	0.4310	0.9160	1.0	.
C17	C	0.0452(4)	0.2651(5)	0.7747(2)	1.0	.
H17A	H	0.0934	0.2555	0.7148	1.0	.
H17B	H	-0.0745	0.2751	0.7591	1.0	.
H17C	H	0.0638	0.1662	0.7960	1.0	.
C18	C	0.3091(4)	0.3925(5)	0.8957(2)	1.0	.
H18A	H	0.3135	0.2872	0.9112	1.0	.
H18B	H	0.3559	0.4838	0.9562	1.0	.
H18C	H	0.3737	0.3898	0.8432	1.0	.
C19	C	0.5869(4)	0.0610(5)	0.6788(2)	1.0	.
N1	N	0.5769(5)	-0.0202(5)	0.7281(3)	1.0	.
C20	C	0.8059(5)	-0.0042(6)	0.5338(3)	1.0	.
N2	N	0.8845(5)	-0.1175(6)	0.5261(3)	1.0	.
