data_shelxl_config-0
loop_
 _symmetry_equiv_pos_as_xyz
'x, y, z'
'-x, -y, -z'

_cell_length_a	8.66300(10)
_cell_length_b	12.7070(2)
_cell_length_c	19.4950(4)
_cell_angle_alpha	85.1040(8)
_cell_angle_beta	82.4560(8)
_cell_angle_gamma	84.7210(8)
loop_
 _atom_site_label
 _atom_site_type_symbol
 _atom_site_fract_x
 _atom_site_fract_y
 _atom_site_fract_z
 _atom_site_occupancy
 _atom_site_disorder_group
Si1A	Si	0.6170(2)	0.74197(12)	0.25570(8)	1.0	.
C1A	C	0.5265(6)	0.9339(4)	0.0599(2)	1.0	.
C2A	C	0.3930(6)	0.9226(4)	0.0264(2)	1.0	.
C3A	C	0.2845(6)	0.8481(4)	0.0509(2)	1.0	.
H3A	H	0.3008	0.8029	0.0912	1.0	.
C4A	C	0.1549(6)	0.8385(4)	0.0182(3)	1.0	.
C5A	C	0.0406(7)	0.7631(5)	0.0441(3)	1.0	.
H5A	H	0.0543	0.7178	0.0846	1.0	.
C6A	C	-0.0857(7)	0.7576(5)	0.0105(3)	1.0	.
H6A	H	-0.1584	0.7070	0.0275	1.0	.
C7A	C	-0.1120(7)	0.8251(5)	-0.0492(3)	1.0	.
H7A	H	-0.2019	0.8200	-0.0715	1.0	.
C8A	C	-0.0090(6)	0.8970(4)	-0.0745(3)	1.0	.
H8A	H	-0.0297	0.9427	-0.1140	1.0	.
C9A	C	0.1299(6)	0.9064(4)	-0.0438(2)	1.0	.
C10A	C	0.2338(6)	0.9778(4)	-0.0678(2)	1.0	.
H10A	H	0.2165	1.0216	-0.1085	1.0	.
C11A	C	0.3683(6)	0.9909(4)	-0.0354(2)	1.0	.
C12A	C	0.5529(6)	0.8648(4)	0.1205(3)	1.0	.
C13A	C	0.5765(7)	0.8104(4)	0.1717(3)	1.0	.
C14A	C	0.8344(8)	0.7258(5)	0.2541(3)	1.0	.
H14A	H	0.8592	0.6950	0.3002	1.0	.
H14B	H	0.8780	0.6745	0.2197	1.0	.
C15A	C	0.9171(8)	0.8303(5)	0.2361(3)	1.0	.
H15A	H	0.8983	0.8581	0.1886	1.0	.
H15B	H	0.8676	0.8832	0.2683	1.0	.
C16A	C	1.0850(9)	0.8209(7)	0.2393(4)	1.0	.
H16A	H	1.1049	0.8040	0.2875	1.0	.
H16B	H	1.1281	0.8881	0.2218	1.0	.
H16C	H	1.1348	0.7643	0.2108	1.0	.
C17A	C	0.5257(7)	0.8309(5)	0.3232(3)	1.0	.
H17A	H	0.5586	0.9031	0.3096	1.0	.
H17B	H	0.4108	0.8344	0.3238	1.0	.
C18A	C	0.5643(8)	0.7987(5)	0.3968(3)	1.0	.
H18A	H	0.5302	0.7271	0.4113	1.0	.
H18B	H	0.6790	0.7953	0.3969	1.0	.
C19A	C	0.4863(9)	0.8755(6)	0.4490(3)	1.0	.
H19A	H	0.5183	0.9469	0.4345	1.0	.
H19B	H	0.5178	0.8532	0.4948	1.0	.
H19C	H	0.3726	0.8760	0.4512	1.0	.
C20A	C	0.5373(12)	0.6105(6)	0.2649(4)	1.0	.
H20A	H	0.6134	0.5626	0.2375	1.0	.
H20B	H	0.5367	0.5839	0.3142	1.0	.
C21A	C	0.3947(11)	0.5977(7)	0.2472(5)	1.0	.
H21A	H	0.3943	0.6274	0.1986	1.0	.
H21B	H	0.3186	0.6438	0.2760	1.0	.
C22A	C	0.3280(8)	0.4902(5)	0.2517(4)	1.0	.
H22A	H	0.3814	0.4489	0.2140	1.0	.
H22B	H	0.2160	0.5003	0.2475	1.0	.
H22C	H	0.3438	0.4520	0.2964	1.0	.
Si1B	Si	0.7341(2)	0.23001(12)	0.27087(8)	1.0	.
C1B	C	0.5567(6)	0.4378(4)	0.4439(2)	1.0	.
C2B	C	0.6535(6)	0.5103(4)	0.4640(2)	1.0	.
C3B	C	0.8037(6)	0.5236(4)	0.4293(2)	1.0	.
H3B	H	0.8403	0.4836	0.3905	1.0	.
C4B	C	0.8997(6)	0.5924(4)	0.4496(2)	1.0	.
C5B	C	1.0531(6)	0.6073(5)	0.4161(3)	1.0	.
H5B	H	1.0922	0.5687	0.3770	1.0	.
C6B	C	1.1441(7)	0.6739(5)	0.4378(3)	1.0	.
H6B	H	1.2462	0.6812	0.4142	1.0	.
C7B	C	1.0903(7)	0.7332(5)	0.4951(3)	1.0	.
H7B	H	1.1555	0.7813	0.5093	1.0	.
C8B	C	0.9478(7)	0.7226(5)	0.5298(3)	1.0	.
H8B	H	0.9145	0.7619	0.5692	1.0	.
C9B	C	0.8450(6)	0.6531(4)	0.5085(2)	1.0	.
C10B	C	0.6950(6)	0.6424(4)	0.5420(3)	1.0	.
H10B	H	0.6580	0.6836	0.5802	1.0	.
C11B	C	0.5965(6)	0.5728(4)	0.5212(2)	1.0	.
C12B	C	0.6145(6)	0.3723(4)	0.3878(2)	1.0	.
C13B	C	0.6630(6)	0.3165(4)	0.3414(3)	1.0	.
C14B	C	0.5858(11)	0.1453(7)	0.2576(4)	1.0	.
H14C	H	0.6349	0.0925	0.2251	1.0	.
H14D	H	0.5543	0.1059	0.3025	1.0	.
C15B	C	0.4546(15)	0.1897(9)	0.2331(7)	1.0	.
H15C	H	0.4852	0.2346	0.1903	1.0	.
H15D	H	0.3987	0.2369	0.2677	1.0	.
C16B	C	0.3295(9)	0.1062(7)	0.2149(5)	1.0	.
H16D	H	0.3724	0.0719	0.1726	1.0	.
H16E	H	0.2294	0.1457	0.2080	1.0	.
H16F	H	0.3133	0.0522	0.2536	1.0	.
C17B	C	0.8988(8)	0.1396(5)	0.3018(3)	1.0	.
H17C	H	0.9448	0.0953	0.2637	1.0	.
H17D	H	0.9807	0.1836	0.3116	1.0	.
C18B	C	0.8547(12)	0.0668(5)	0.3662(4)	1.0	.
H18C	H	0.8006	0.1105	0.4032	1.0	.
H18D	H	0.7797	0.0184	0.3552	1.0	.
C19B	C	0.9883(14)	0.0023(7)	0.3934(5)	1.0	.
H19D	H	1.0510	-0.0342	0.3556	1.0	.
H19E	H	0.9489	-0.0501	0.4297	1.0	.
H19F	H	1.0532	0.0487	0.4127	1.0	.
C20B	C	0.7914(7)	0.3176(4)	0.1921(3)	1.0	.
H20C	H	0.8222	0.2729	0.1526	1.0	.
H20D	H	0.6987	0.3647	0.1815	1.0	.
C21B	C	0.9247(8)	0.3863(5)	0.1971(3)	1.0	.
H21C	H	1.0198	0.3395	0.2045	1.0	.
H21D	H	0.8971	0.4284	0.2380	1.0	.
C22B	C	0.9616(9)	0.4619(6)	0.1326(4)	1.0	.
H22D	H	0.9966	0.4208	0.0923	1.0	.
H22E	H	1.0444	0.5058	0.1401	1.0	.
H22F	H	0.8675	0.5076	0.1241	1.0	.
