data_x04048_config-1
loop_
 _symmetry_equiv_pos_as_xyz
'x, y, z'
'-x, -y, -z'

_cell_length_a	10.6177(2)
_cell_length_b	13.6171(3)
_cell_length_c	14.0829(3)
_cell_angle_alpha	75.1540(10)
_cell_angle_beta	73.9150(10)
_cell_angle_gamma	71.1230(10)
loop_
 _atom_site_label
 _atom_site_type_symbol
 _atom_site_fract_x
 _atom_site_fract_y
 _atom_site_fract_z
 _atom_site_occupancy
 _atom_site_disorder_group
Si1A	Si	0.26486(10)	0.13989(8)	0.23784(7)	1.0	.
C1A	C	0.0618(3)	0.0335(3)	0.0593(3)	1.0	.
C2A	C	0.0920(3)	0.0639(2)	-0.0467(3)	1.0	.
C3A	C	0.1813(3)	0.1276(3)	-0.0954(3)	1.0	.
H3A	H	0.2225	0.1500	-0.0559	1.0	.
C4A	C	0.2108(3)	0.1585(3)	-0.1991(3)	1.0	.
C5A	C	0.3020(4)	0.2231(3)	-0.2490(3)	1.0	.
H5A	H	0.3453	0.2448	-0.2105	1.0	.
C6A	C	0.3270(4)	0.2533(3)	-0.3501(3)	1.0	.
H6A	H	0.3872	0.2964	-0.3817	1.0	.
C7A	C	0.2641(4)	0.2211(3)	-0.4096(3)	1.0	.
H7A	H	0.2822	0.2433	-0.4805	1.0	.
C8A	C	0.1789(4)	0.1594(3)	-0.3659(3)	1.0	.
H8A	H	0.1381	0.1383	-0.4067	1.0	.
C9A	C	0.1492(3)	0.1251(3)	-0.2596(3)	1.0	.
C10A	C	0.0616(3)	0.0615(3)	-0.2125(3)	1.0	.
H10A	H	0.0216	0.0387	-0.2525	1.0	.
C11A	C	0.0307(3)	0.0301(3)	-0.1075(3)	1.0	.
C12A	C	0.1243(3)	0.0662(3)	0.1193(3)	1.0	.
C13A	C	0.1776(3)	0.0953(3)	0.1675(3)	1.0	.
C14A	C	0.1921(5)	0.1030(4)	0.3758(3)	1.0	.
H14A	H	0.2354	0.1324	0.4127	1.0	.
C15A	C	0.0398(5)	0.1524(4)	0.4028(3)	1.0	.
H15A	H	-0.0061	0.1286	0.3649	1.0	.
H15B	H	0.0208	0.2295	0.3858	1.0	.
H15C	H	0.0063	0.1311	0.4750	1.0	.
C16A	C	0.2306(6)	-0.0167(4)	0.4106(4)	1.0	.
H16A	H	0.2023	-0.0334	0.4839	1.0	.
H16B	H	0.3295	-0.0452	0.3906	1.0	.
H16C	H	0.1848	-0.0481	0.3796	1.0	.
C17A	C	0.4498(4)	0.0738(3)	0.2019(4)	1.0	.
H17A	H	0.4588	-0.0036	0.2140	1.0	.
C18A	C	0.5303(5)	0.0887(5)	0.2699(6)	1.0	.
H18A	H	0.6280	0.0616	0.2436	1.0	.
H18B	H	0.5053	0.0500	0.3381	1.0	.
H18C	H	0.5088	0.1639	0.2715	1.0	.
C19A	C	0.5066(5)	0.1060(5)	0.0904(5)	1.0	.
H19A	H	0.4886	0.1830	0.0732	1.0	.
H19B	H	0.4627	0.0824	0.0510	1.0	.
H19C	H	0.6050	0.0734	0.0752	1.0	.
C20A	C	0.2238(4)	0.2877(4)	0.2000(4)	1.0	1
H20A	H	0.2563	0.3046	0.1262	1.0	1
H20B	H	0.1234	0.3159	0.2141	1.0	1
C21A	C	0.2780(7)	0.3447(5)	0.2460(8)	1.0	1
H21A	H	0.2510	0.3267	0.3194	1.0	1
H21B	H	0.2420	0.4208	0.2241	1.0	1
H21C	H	0.3776	0.3251	0.2257	1.0	1
Si1B	Si	0.72417(10)	0.41587(8)	0.23113(8)	1.0	.
C1B	C	0.9374(3)	0.4814(3)	0.4315(3)	1.0	.
C2B	C	0.9113(3)	0.4327(3)	0.5339(3)	1.0	.
C3B	C	0.8246(4)	0.3662(3)	0.5704(3)	1.0	.
H3B	H	0.7840	0.3527	0.5247	1.0	.
C4B	C	0.7963(4)	0.3198(3)	0.6705(3)	1.0	.
C5B	C	0.7059(4)	0.2528(3)	0.7088(3)	1.0	.
H5B	H	0.6637	0.2393	0.6640	1.0	.
C6B	C	0.6804(4)	0.2093(3)	0.8062(3)	1.0	.
H6B	H	0.6207	0.1651	0.8295	1.0	.
C7B	C	0.7416(4)	0.2283(3)	0.8757(3)	1.0	.
H7B	H	0.7221	0.1970	0.9447	1.0	.
C8B	C	0.8272(4)	0.2908(3)	0.8435(3)	1.0	.
H8B	H	0.8674	0.3028	0.8904	1.0	.
C9B	C	0.8580(4)	0.3388(3)	0.7407(3)	1.0	.
C10B	C	0.9456(4)	0.4029(3)	0.7051(3)	1.0	.
H10B	H	0.9879	0.4144	0.7510	1.0	.
C11B	C	0.9744(3)	0.4515(3)	0.6039(3)	1.0	.
C12B	C	0.8735(4)	0.4631(3)	0.3627(3)	1.0	.
C13B	C	0.8188(4)	0.4452(3)	0.3076(3)	1.0	.
C14B	C	0.8462(4)	0.3225(3)	0.1489(3)	1.0	.
H14B	H	0.9080	0.2692	0.1912	1.0	.
C15B	C	0.7777(5)	0.2626(4)	0.1132(3)	1.0	.
H15D	H	0.7107	0.3123	0.0755	1.0	.
H15E	H	0.7315	0.2202	0.1713	1.0	.
H15F	H	0.8459	0.2160	0.0696	1.0	.
C16B	C	0.9376(4)	0.3764(4)	0.0597(3)	1.0	.
H16D	H	1.0093	0.3225	0.0259	1.0	.
H16E	H	0.9791	0.4170	0.0843	1.0	.
H16F	H	0.8825	0.4239	0.0121	1.0	.
C17B	C	0.5919(4)	0.3537(3)	0.3220(3)	1.0	.
H17B	H	0.5417	0.3363	0.2809	1.0	.
C18B	C	0.6557(4)	0.2493(4)	0.3869(3)	1.0	.
H18D	H	0.7044	0.2633	0.4296	1.0	.
H18E	H	0.7196	0.2009	0.3432	1.0	.
H18F	H	0.5837	0.2173	0.4292	1.0	.
C19B	C	0.4869(5)	0.4287(4)	0.3881(4)	1.0	.
H19D	H	0.4195	0.3931	0.4328	1.0	.
H19E	H	0.4410	0.4917	0.3456	1.0	.
H19F	H	0.5326	0.4494	0.4284	1.0	.
C20B	C	0.6430(5)	0.5454(3)	0.1560(4)	1.0	1
H20C	H	0.5859	0.5938	0.2029	1.0	1
H20D	H	0.7157	0.5772	0.1122	1.0	1
C21B	C	0.5548(6)	0.5367(4)	0.0905(5)	1.0	1
H21G	H	0.6122	0.4950	0.0391	1.0	1
H21H	H	0.5106	0.6075	0.0579	1.0	1
H21I	H	0.4852	0.5021	0.1327	1.0	1
