data_x10099_config-2
loop_
 _symmetry_equiv_pos_as_xyz
'x, y, z'
'-x, -y, -z'

_cell_length_a	6.6164(2)
_cell_length_b	11.1867(3)
_cell_length_c	14.8538(3)
_cell_angle_alpha	98.102(1)
_cell_angle_beta	96.695(1)
_cell_angle_gamma	98.415(1)
loop_
 _atom_site_label
 _atom_site_type_symbol
 _atom_site_fract_x
 _atom_site_fract_y
 _atom_site_fract_z
 _atom_site_occupancy
 _atom_site_disorder_group
C1	C	0.4979(3)	0.61616(19)	0.55194(14)	1.0	.
C2	C	0.3323(3)	0.56434(19)	0.48223(14)	1.0	.
C3	C	0.1664(3)	0.6278(2)	0.46254(15)	1.0	.
C4'	C	0.0091(3)	0.5756(2)	0.39373(15)	1.0	2
C5'	C	-0.186(3)	0.597(2)	0.3435(15)	1.0	2
H5'	H	-0.2351	0.6714	0.3625	1.0	2
C6'	C	-0.292(18)	0.522(8)	0.276(9)	1.0	2
S7'	S	-0.1938(11)	0.3828(6)	0.2564(5)	1.0	2
C8'	C	0.0072(3)	0.4573(2)	0.34230(15)	1.0	2
C9	C	0.1666(3)	0.3948(2)	0.36010(14)	1.0	.
C10	C	0.3340(3)	0.44631(19)	0.42948(14)	1.0	.
C11	C	0.4963(3)	0.7323(2)	0.60613(15)	1.0	.
C12	C	0.4941(4)	0.8279(2)	0.65373(18)	1.0	.
Si1'	Si	0.5041(2)	0.99006(13)	0.70505(11)	1.0	2
C13'	C	0.6631(11)	1.0085(9)	0.8199(6)	1.0	2
H13C	H	0.8063	0.9994	0.8110	1.0	2
H13D	H	0.6666	1.0926	0.8524	1.0	2
C14'	C	0.5847(14)	0.9169(6)	0.8810(5)	1.0	2
H14D	H	0.4431	0.9252	0.8906	1.0	2
H14E	H	0.6737	0.9336	0.9404	1.0	2
H14F	H	0.5875	0.8334	0.8510	1.0	2
C15'	C	0.2289(9)	1.0091(6)	0.7124(4)	1.0	2
H15C	H	0.1737	0.9568	0.7554	1.0	2
H15D	H	0.2261	1.0952	0.7386	1.0	2
C16'	C	0.0866(9)	0.9768(7)	0.6203(4)	1.0	2
H16D	H	0.1406	1.0273	0.5769	1.0	2
H16E	H	-0.0522	0.9924	0.6294	1.0	2
H16F	H	0.0803	0.8901	0.5958	1.0	2
C17'	C	0.6239(16)	1.0938(11)	0.6306(9)	1.0	2
H17C	H	0.5296	1.0856	0.5724	1.0	2
H17D	H	0.6397	1.1795	0.6619	1.0	2
C18'	C	0.8298(10)	1.0681(6)	0.6088(6)	1.0	2
H18D	H	0.9272	1.0817	0.6657	1.0	2
H18E	H	0.8809	1.1228	0.5674	1.0	2
H18F	H	0.8164	0.9828	0.5790	1.0	2
O1	O	-0.5538(3)	0.41786(16)	0.15013(12)	1.0	.
O2	O	-0.5352(2)	0.61795(16)	0.20882(11)	1.0	.
C19	C	-0.4750(3)	0.5074(2)	0.20404(16)	1.0	.
C20	C	-0.6959(3)	0.6319(2)	0.14159(16)	1.0	.
C21	C	-0.8780(3)	0.6541(2)	0.17117(17)	1.0	.
H21	H	-0.8967	0.6544	0.2336	1.0	.
C22	C	-1.0336(4)	0.6761(2)	0.10791(19)	1.0	.
H22	H	-1.1609	0.6912	0.1270	1.0	.
C23	C	-1.0049(4)	0.6761(2)	0.01746(19)	1.0	.
H23	H	-1.1122	0.6912	-0.0257	1.0	.
C24	C	-0.8199(4)	0.6543(3)	-0.01018(18)	1.0	.
H24	H	-0.8007	0.6541	-0.0726	1.0	.
C25	C	-0.6619(4)	0.6325(3)	0.05198(17)	1.0	.
H25	H	-0.5337	0.6185	0.0333	1.0	.
