data_x10142_config-1
loop_
 _symmetry_equiv_pos_as_xyz
'x, y, z'
'-x, -y, -z'

_cell_length_a	6.3369(2)
_cell_length_b	10.9733(3)
_cell_length_c	16.8510(4)
_cell_angle_alpha	74.665(1)
_cell_angle_beta	83.637(1)
_cell_angle_gamma	76.389(1)
loop_
 _atom_site_label
 _atom_site_type_symbol
 _atom_site_fract_x
 _atom_site_fract_y
 _atom_site_fract_z
 _atom_site_occupancy
 _atom_site_disorder_group
Si1	Si	0.05509(13)	0.85558(8)	0.70420(5)	1.0	.
C1	C	0.4039(4)	0.5836(2)	0.55151(16)	1.0	.
C2	C	0.2888(4)	0.5803(2)	0.48535(16)	1.0	.
C3	C	0.0794(4)	0.6586(3)	0.46943(17)	1.0	.
H3	H	0.0122	0.7137	0.5043	1.0	1
C4	C	-0.0267(4)	0.6552(3)	0.40408(17)	1.0	1
S5	S	-0.28713(17)	0.74957(10)	0.37829(6)	1.0	1
C6	C	-0.2698(13)	0.6777(8)	0.2969(5)	1.0	1
C7	C	-0.0798(9)	0.5915(5)	0.2883(3)	1.0	1
H7	H	-0.0493	0.5480	0.2452	1.0	1
C8	C	0.0700(5)	0.5729(3)	0.35100(17)	1.0	1
C19	C	-0.4584(8)	0.7217(4)	0.2487(3)	1.0	1
O1	O	-0.6265(5)	0.7883(3)	0.2647(2)	1.0	1
O2	O	-0.4195(7)	0.6763(5)	0.1784(2)	1.0	1
C20	C	-0.5952(9)	0.7115(5)	0.1262(3)	1.0	1
H20	H	-0.7330	0.7356	0.1590	1.0	1
C21	C	-0.5663(12)	0.8279(7)	0.0579(4)	1.0	1
F1	F	-0.5568(7)	0.9264(4)	0.0876(2)	1.0	1
F2	F	-0.7321(9)	0.8671(5)	0.0090(3)	1.0	1
F3	F	-0.3816(10)	0.8049(5)	0.0123(3)	1.0	1
C22	C	-0.6031(11)	0.5932(8)	0.0975(4)	1.0	1
F4	F	-0.7666(6)	0.6152(4)	0.0512(2)	1.0	1
F5	F	-0.4189(7)	0.5546(4)	0.0546(2)	1.0	1
F6	F	-0.6234(5)	0.4976(3)	0.16307(18)	1.0	1
C9	C	0.2711(5)	0.4936(3)	0.36596(17)	1.0	.
H9	H	0.3331	0.4372	0.3314	1.0	1
C10	C	0.3867(4)	0.4953(2)	0.43243(16)	1.0	.
C11	C	0.3043(5)	0.6695(3)	0.60293(17)	1.0	.
C12	C	0.2160(5)	0.7413(3)	0.64504(18)	1.0	.
C13	C	-0.1197(6)	0.7654(4)	0.7832(2)	1.0	.
H13A	H	-0.2285	0.8279	0.8077	1.0	.
H13B	H	-0.1994	0.7216	0.7559	1.0	.
C14	C	0.0079(9)	0.6649(4)	0.8518(3)	1.0	.
H14A	H	0.1257	0.6079	0.8277	1.0	.
H14B	H	-0.0892	0.6135	0.8874	1.0	.
H14C	H	0.0695	0.7087	0.8845	1.0	.
C15	C	0.2426(5)	0.9146(3)	0.7557(2)	1.0	.
H15A	H	0.3400	0.8392	0.7896	1.0	.
H15B	H	0.3342	0.9623	0.7130	1.0	.
C16	C	0.1241(6)	1.0032(3)	0.8108(2)	1.0	.
H16A	H	0.0274	1.0783	0.7777	1.0	.
H16B	H	0.2309	1.0325	0.8350	1.0	.
H16C	H	0.0384	0.9555	0.8549	1.0	.
C17	C	-0.1107(7)	0.9912(4)	0.6290(2)	1.0	.
H17A	H	-0.1992	1.0531	0.6594	1.0	.
H17B	H	-0.0104	1.0371	0.5895	1.0	.
C18	C	-0.2615(7)	0.9534(4)	0.5804(2)	1.0	.
H18A	H	-0.1762	0.8941	0.5485	1.0	.
H18B	H	-0.3401	1.0312	0.5428	1.0	.
H18C	H	-0.3658	0.9107	0.6184	1.0	.
