data_x14456_config-2
loop_
 _symmetry_equiv_pos_as_xyz
'x, y, z'
'-x+1/2, y+1/2, -z+1/2'
'-x, -y, -z'
'x-1/2, -y-1/2, z-1/2'

_cell_length_a	15.5057(3)
_cell_length_b	8.3105(2)
_cell_length_c	17.7097(4)
_cell_angle_alpha	90
_cell_angle_beta	101.117(1)
_cell_angle_gamma	90
loop_
 _atom_site_label
 _atom_site_type_symbol
 _atom_site_fract_x
 _atom_site_fract_y
 _atom_site_fract_z
 _atom_site_occupancy
 _atom_site_disorder_group
Si1	Si	0.52849(4)	0.23778(6)	0.81418(3)	1.0	.
C1	C	0.50329(12)	0.0387(2)	0.57823(11)	1.0	.
C2	C	0.53527(12)	0.1505(2)	0.52985(11)	1.0	.
C3	C	0.57183(13)	0.3004(2)	0.55883(11)	1.0	.
C4'	C	0.60190(13)	0.4060(2)	0.51076(12)	1.0	2
C5'	C	0.6403(10)	0.5631(13)	0.5306(8)	1.0	2
H5'	H	0.6504	0.6078	0.5796	1.0	2
F1'	F	0.6933(2)	0.7835(4)	0.4624(2)	1.0	2
C6'	C	0.6596(6)	0.6358(9)	0.4667(3)	1.0	2
S7'	S	0.63749(14)	0.5268(2)	0.38127(12)	1.0	2
C8'	C	0.59660(13)	0.3693(2)	0.43119(12)	1.0	2
C9	C	0.56204(13)	0.2257(2)	0.40149(11)	1.0	.
C10	C	0.53177(13)	0.1117(2)	0.45021(11)	1.0	.
C11	C	0.50651(13)	0.0825(2)	0.65677(11)	1.0	.
C12	C	0.51175(13)	0.1314(2)	0.72146(12)	1.0	.
C13	C	0.57240(14)	0.0939(2)	0.89296(12)	1.0	.
C14	C	0.59854(17)	-0.0603(3)	0.87697(13)	1.0	.
H14	H	0.5923	-0.0937	0.8261	1.0	.
C15	C	0.63396(18)	-0.1657(3)	0.93603(15)	1.0	.
H15	H	0.6503	-0.2693	0.9246	1.0	.
C16	C	0.64466(16)	-0.1159(3)	1.01130(14)	1.0	.
H16	H	0.6695	-0.1853	1.0507	1.0	.
C17	C	0.61885(15)	0.0364(3)	1.02875(13)	1.0	.
H17	H	0.6256	0.0691	1.0798	1.0	.
C18	C	0.58278(15)	0.1403(3)	0.96982(12)	1.0	.
H18	H	0.5652	0.2427	0.9818	1.0	.
C19	C	0.42081(13)	0.3267(2)	0.82454(11)	1.0	.
C20	C	0.34210(15)	0.2544(3)	0.78950(12)	1.0	.
H20	H	0.3437	0.1641	0.7588	1.0	.
C21	C	0.26138(14)	0.3139(3)	0.79935(12)	1.0	.
H21	H	0.2096	0.2648	0.7747	1.0	.
C22	C	0.25819(15)	0.4463(3)	0.84591(13)	1.0	.
H22	H	0.2044	0.4849	0.8540	1.0	.
C23	C	0.33543(16)	0.5211(3)	0.88036(15)	1.0	.
H23	H	0.3334	0.6110	0.9112	1.0	.
C24	C	0.41586(15)	0.4632(3)	0.86937(13)	1.0	.
H24	H	0.4672	0.5160	0.8921	1.0	.
C25	C	0.61073(13)	0.4007(2)	0.80870(12)	1.0	.
C26	C	0.59181(14)	0.5248(2)	0.75442(12)	1.0	.
H26	H	0.5362	0.5306	0.7234	1.0	.
C27	C	0.65409(16)	0.6383(3)	0.74614(13)	1.0	.
H27	H	0.6402	0.7199	0.7099	1.0	.
C28	C	0.73752(16)	0.6313(3)	0.79176(14)	1.0	.
H28	H	0.7798	0.7073	0.7860	1.0	.
C29	C	0.75726(15)	0.5095(3)	0.84628(15)	1.0	.
H29	H	0.8129	0.5042	0.8773	1.0	.
C30	C	0.69468(15)	0.3969(3)	0.85440(13)	1.0	.
H30	H	0.7087	0.3163	0.8912	1.0	.
