data_x15143_config-2
loop_
 _symmetry_equiv_pos_as_xyz
'x, y, z'
'x, -y, z+1/2'

_cell_length_a	6.3015(2)
_cell_length_b	17.8388(4)
_cell_length_c	13.7739(3)
_cell_angle_alpha	90
_cell_angle_beta	91.803(1)
_cell_angle_gamma	90
loop_
 _atom_site_label
 _atom_site_type_symbol
 _atom_site_fract_x
 _atom_site_fract_y
 _atom_site_fract_z
 _atom_site_occupancy
 _atom_site_disorder_group
Si1	Si	0.2166(2)	1.05031(7)	0.61116(9)	1.0	.
Si2	Si	0.7735(2)	0.44829(7)	0.38438(9)	1.0	.
C1	C	0.4360(9)	0.8237(3)	0.5217(4)	1.0	.
C2	C	0.6275(10)	0.7927(3)	0.5638(4)	1.0	.
C3	C	0.7524(10)	0.8342(3)	0.6309(4)	1.0	.
C4'	C	0.9336(10)	0.8012(3)	0.6716(4)	1.0	2
C5'	C	1.080(4)	0.8341(10)	0.7354(15)	1.0	2
H5'	H	1.0667	0.8841	0.7582	1.0	2
C6'	C	1.248(3)	0.7871(7)	0.7629(15)	1.0	2
H6'	H	1.3588	0.8012	0.8074	1.0	2
S7'	S	1.2319(6)	0.7004(2)	0.7076(3)	1.0	2
C8'	C	0.9940(9)	0.7280(3)	0.6444(4)	1.0	2
C9	C	0.8732(10)	0.6866(3)	0.5786(4)	1.0	.
C10	C	0.6856(9)	0.7169(3)	0.5382(4)	1.0	.
C11	C	0.5516(10)	0.6756(3)	0.4737(4)	1.0	.
C12	C	0.3684(9)	0.7064(3)	0.4312(4)	1.0	.
C13	C	0.2356(11)	0.6667(3)	0.3629(4)	1.0	.
C14'	C	0.0581(9)	0.6975(3)	0.3226(4)	1.0	2
S15'	S	-0.1080(16)	0.6619(5)	0.2359(6)	1.0	2
C16'	C	-0.270(3)	0.7423(7)	0.2388(13)	1.0	2
H16'	H	-0.4002	0.7452	0.2020	1.0	2
C17'	C	-0.204(5)	0.7980(19)	0.294(3)	1.0	2
H17'	H	-0.2685	0.8460	0.2984	1.0	2
C18'	C	-0.0065(9)	0.7727(3)	0.3494(4)	1.0	2
C19	C	0.1150(9)	0.8122(3)	0.4147(4)	1.0	.
C20	C	0.3058(9)	0.7819(3)	0.4560(4)	1.0	.
C21	C	0.3803(9)	0.8986(3)	0.5449(4)	1.0	.
C22	C	0.327(1)	0.9616(3)	0.5645(4)	1.0	.
C23	C	-0.0724(12)	1.0518(3)	0.5808(6)	1.0	.
H23A	H	-0.1390	1.0075	0.6106	1.0	.
H23B	H	-0.1350	1.0971	0.6100	1.0	.
C24	C	-0.1266(13)	1.0516(5)	0.4727(7)	1.0	.
H24A	H	-0.0906	1.1004	0.4449	1.0	.
H24B	H	-0.2788	1.0421	0.4623	1.0	.
H24C	H	-0.0454	1.0122	0.4411	1.0	.
C25	C	0.3520(9)	1.1310(3)	0.5552(4)	1.0	.
H25A	H	0.5026	1.1316	0.5779	1.0	.
H25B	H	0.3486	1.1245	0.4838	1.0	.
C26	C	0.2477(12)	1.2070(3)	0.5804(6)	1.0	.
H26A	H	0.0958	1.2051	0.5630	1.0	.
H26B	H	0.3149	1.2472	0.5440	1.0	.
H26C	H	0.2665	1.2166	0.6502	1.0	.
C27	C	0.2648(16)	1.0535(4)	0.7444(5)	1.0	.
H27A	H	0.2693	1.1067	0.7645	1.0	.
H27B	H	0.1414	1.0303	0.7755	1.0	.
C28	C	0.4666(13)	1.0152(4)	0.7851(5)	1.0	.
H28A	H	0.4574	0.9611	0.7731	1.0	.
H28B	H	0.4807	1.0244	0.8551	1.0	.
H28C	H	0.5906	1.0356	0.7529	1.0	.
C29	C	0.6163(10)	0.6001(3)	0.4481(4)	1.0	.
C30	C	0.6690(11)	0.5380(3)	0.4274(4)	1.0	.
C31	C	0.7345(10)	0.4485(3)	0.2476(4)	1.0	.
H31A	H	0.8561	0.4752	0.2197	1.0	.
H31B	H	0.7403	0.3959	0.2248	1.0	.
C32	C	0.5403(14)	0.4820(3)	0.2079(5)	1.0	.
H32A	H	0.4174	0.4571	0.2355	1.0	.
H32B	H	0.5347	0.4761	0.1371	1.0	.
H32C	H	0.5377	0.5354	0.2243	1.0	.
C33	C	0.6441(10)	0.3677(2)	0.4442(5)	1.0	.
H33A	H	0.6507	0.3757	0.5153	1.0	.
H33B	H	0.4925	0.3663	0.4231	1.0	.
C34	C	0.7443(11)	0.2922(3)	0.4219(7)	1.0	.
H34A	H	0.7663	0.2883	0.3520	1.0	.
H34B	H	0.6500	0.2519	0.4422	1.0	.
H34C	H	0.8812	0.2879	0.4573	1.0	.
C35	C	1.0621(11)	0.4471(3)	0.4162(6)	1.0	.
H35A	H	1.1251	0.4013	0.3884	1.0	.
H35B	H	1.1295	0.4908	0.3855	1.0	.
C36	C	1.1150(13)	0.4489(5)	0.5248(7)	1.0	.
H36A	H	1.0674	0.4966	0.5520	1.0	.
H36B	H	1.2688	0.4439	0.5357	1.0	.
H36C	H	1.0429	0.4073	0.5566	1.0	.
