data_x15181_config-1
loop_
 _symmetry_equiv_pos_as_xyz
'x, y, z'
'-x, -y, -z'

_cell_length_a	9.3558(5)
_cell_length_b	10.1554(6)
_cell_length_c	11.4777(7)
_cell_angle_alpha	109.424(4)
_cell_angle_beta	95.102(4)
_cell_angle_gamma	91.032(4)
loop_
 _atom_site_label
 _atom_site_type_symbol
 _atom_site_fract_x
 _atom_site_fract_y
 _atom_site_fract_z
 _atom_site_occupancy
 _atom_site_disorder_group
Si1	Si	0.33637(7)	0.89842(7)	0.24483(7)	1.0	.
C1	C	0.4584(3)	0.5984(3)	0.4429(2)	1.0	.
C2	C	0.3669(3)	0.5671(3)	0.5233(2)	1.0	.
C3	C	0.2350(3)	0.6319(3)	0.5480(3)	1.0	.
H3	H	0.2058	0.6988	0.5105	1.0	1
C4	C	0.1496(3)	0.5987(3)	0.6255(2)	1.0	1
S5	S	-0.01715(18)	0.66911(16)	0.66611(16)	1.0	1
C6	C	-0.0339(6)	0.5622(8)	0.7576(6)	1.0	1
C7	C	0.0804(11)	0.4822(9)	0.7543(7)	1.0	1
H7	H	0.0866	0.4182	0.7988	1.0	1
C8	C	0.1912(3)	0.4971(3)	0.6819(2)	1.0	1
C22	C	-0.1679(7)	0.5643(8)	0.8203(7)	1.0	1
H22A	H	-0.1783	0.4764	0.8391	1.0	1
H22B	H	-0.2517	0.5674	0.7625	1.0	1
S1	S	-0.170(2)	0.711(2)	0.9629(11)	1.0	1
C9	C	0.3190(3)	0.4352(3)	0.6617(3)	1.0	.
H9	H	0.3473	0.3705	0.7020	1.0	1
C10	C	0.4101(3)	0.4665(3)	0.5814(2)	1.0	.
C11	C	0.4163(3)	0.6981(3)	0.3843(2)	1.0	.
C12	C	0.3829(3)	0.7800(3)	0.3327(3)	1.0	.
C13	C	0.4986(3)	1.0215(3)	0.2694(3)	1.0	.
H13	H	0.5212	1.0637	0.3614	1.0	.
C14	C	0.6326(4)	0.9512(4)	0.2213(4)	1.0	.
H14A	H	0.6206	0.9163	0.1304	1.0	.
H14B	H	0.6492	0.8730	0.2520	1.0	.
H14C	H	0.7150	1.0189	0.2504	1.0	.
C15	C	0.4669(4)	1.1443(3)	0.2232(3)	1.0	.
H15A	H	0.5530	1.2068	0.2409	1.0	.
H15B	H	0.3883	1.1959	0.2656	1.0	.
H15C	H	0.4391	1.1087	0.1335	1.0	.
C16	C	0.2778(3)	0.7806(3)	0.0814(3)	1.0	.
H16	H	0.1906	0.7257	0.0874	1.0	.
C17	C	0.3863(4)	0.6721(4)	0.0247(3)	1.0	.
H17A	H	0.3425	0.6058	-0.0542	1.0	.
H17B	H	0.4141	0.6217	0.0820	1.0	.
H17C	H	0.4716	0.7195	0.0101	1.0	.
C18	C	0.2287(4)	0.8612(4)	-0.0049(3)	1.0	.
H18A	H	0.3110	0.9149	-0.0168	1.0	.
H18B	H	0.1551	0.9252	0.0320	1.0	.
H18C	H	0.1885	0.7953	-0.0854	1.0	.
C19	C	0.1836(3)	1.0023(3)	0.3162(3)	1.0	.
H19	H	0.1619	1.0702	0.2716	1.0	.
C20	C	0.0468(4)	0.9125(5)	0.3025(4)	1.0	.
H20A	H	0.0662	0.8407	0.3407	1.0	.
H20B	H	0.0144	0.8676	0.2142	1.0	.
H20C	H	-0.0281	0.9715	0.3438	1.0	.
C21	C	0.2242(4)	1.0867(4)	0.4527(3)	1.0	.
H21A	H	0.1428	1.1407	0.4868	1.0	.
H21B	H	0.3070	1.1505	0.4604	1.0	.
H21C	H	0.2489	1.0230	0.4987	1.0	.
