data_c17028_config-0
loop_
 _symmetry_equiv_pos_as_xyz
'x, y, z'
'-x, -y, -z'

_cell_length_a	8.2227(5)
_cell_length_b	10.3179(6)
_cell_length_c	11.9239(7)
_cell_angle_alpha	105.145(2)
_cell_angle_beta	102.777(2)
_cell_angle_gamma	105.184(2)
loop_
 _atom_site_label
 _atom_site_type_symbol
 _atom_site_fract_x
 _atom_site_fract_y
 _atom_site_fract_z
 _atom_site_occupancy
 _atom_site_disorder_group
Si1	Si	0.67422(4)	0.16526(3)	0.81743(3)	1.0	.
C1	C	0.54675(16)	0.41608(13)	0.57545(11)	1.0	.
C2	C	0.62011(16)	0.43125(13)	0.48222(11)	1.0	.
N3	N	0.74218(14)	0.37571(11)	0.44264(10)	1.0	.
C4	C	0.83022(17)	0.29366(14)	0.48740(12)	1.0	.
H4A	H	0.806575	0.264997	0.553342	1.0	.
C5	C	0.94979(18)	0.25410(14)	0.43768(13)	1.0	.
H5A	H	1.009776	0.197466	0.468471	1.0	.
C6	C	0.98597(18)	0.29758(14)	0.33860(13)	1.0	.
H6A	H	1.070722	0.270323	0.304146	1.0	.
C7	C	0.89960(18)	0.37770(14)	0.29359(13)	1.0	.
H7A	H	0.923410	0.404937	0.227090	1.0	.
C8	C	0.77398(17)	0.42123(14)	0.34490(12)	1.0	.
C9	C	0.67213(16)	0.50400(14)	0.32247(12)	1.0	.
H9A	H	0.667426	0.547407	0.261244	1.0	.
C10	C	0.57588(16)	0.51255(13)	0.40717(12)	1.0	.
C11	C	0.58608(16)	0.33423(14)	0.65120(12)	1.0	.
C12	C	0.61429(17)	0.26468(14)	0.71601(12)	1.0	.
C13	C	0.51998(17)	0.15755(14)	0.91317(12)	1.0	.
H13A	H	0.563603	0.116454	0.976184	1.0	.
C14	C	0.33038(19)	0.05914(16)	0.83692(15)	1.0	.
H14A	H	0.253359	0.060517	0.888971	1.0	.
H14B	H	0.329563	-0.038446	0.802878	1.0	.
H14C	H	0.286988	0.092445	0.770170	1.0	.
C15	C	0.52134(19)	0.30653(15)	0.98110(14)	1.0	.
H15A	H	0.438705	0.297915	1.028887	1.0	.
H15B	H	0.485012	0.351823	0.921772	1.0	.
H15C	H	0.641174	0.364992	1.036011	1.0	.
C16	C	0.90855(17)	0.27627(14)	0.91857(12)	1.0	.
H16A	H	0.901799	0.367910	0.968563	1.0	.
C17	C	0.98683(18)	0.21138(16)	1.01058(13)	1.0	.
H17A	H	1.097893	0.282063	1.069682	1.0	.
H17B	H	1.010169	0.127002	0.966954	1.0	.
H17C	H	0.902333	0.183707	1.053755	1.0	.
C18	C	1.03760(18)	0.31760(16)	0.84845(14)	1.0	.
H18A	H	1.149721	0.388341	0.906125	1.0	.
H18B	H	0.986128	0.358320	0.789809	1.0	.
H18C	H	1.059487	0.232559	0.804581	1.0	.
C19	C	0.64003(17)	-0.02091(14)	0.71756(12)	1.0	.
H19A	H	0.513546	-0.060784	0.664513	1.0	.
C20	C	0.6614(2)	-0.12037(15)	0.79158(14)	1.0	.
H20A	H	0.625182	-0.218483	0.735566	1.0	.
H20B	H	0.586832	-0.116119	0.845269	1.0	.
H20C	H	0.785703	-0.089934	0.841101	1.0	.
C21	C	0.7520(2)	-0.02831(16)	0.63053(15)	1.0	.
H21A	H	0.712643	-0.126173	0.573388	1.0	.
H21B	H	0.877019	0.000157	0.677823	1.0	.
H21C	H	0.737827	0.036364	0.584701	1.0	.
