data_k02257_config-0
loop_
 _symmetry_equiv_pos_as_xyz
'x, y, z'
'-x, -y, -z'

_cell_length_a	7.6512(15)
_cell_length_b	11.831(2)
_cell_length_c	21.589(4)
_cell_angle_alpha	103.31(3)
_cell_angle_beta	92.60(3)
_cell_angle_gamma	90.83(3)
loop_
 _atom_site_label
 _atom_site_type_symbol
 _atom_site_fract_x
 _atom_site_fract_y
 _atom_site_fract_z
 _atom_site_occupancy
 _atom_site_disorder_group
Si1	Si	0.54231(7)	0.62433(4)	0.38118(2)	1.0	.
Si2	Si	1.65607(7)	1.07741(4)	0.17039(2)	1.0	.
O1	O	0.82245(15)	0.52256(10)	0.19541(5)	1.0	.
O2	O	1.39768(15)	0.72437(10)	0.11052(5)	1.0	.
C1	C	0.9513(2)	0.74510(15)	0.26873(8)	1.0	.
C2	C	1.0272(2)	0.68568(15)	0.21145(8)	1.0	.
C3	C	0.9659(2)	0.57556(15)	0.17616(8)	1.0	.
C4	C	1.0488(2)	0.51370(15)	0.12302(8)	1.0	.
C5	C	0.9908(2)	0.39904(15)	0.08928(9)	1.0	.
H5	H	0.8936	0.3628	0.1035	1.0	.
C6	C	1.0733(2)	0.34217(16)	0.03742(9)	1.0	.
H6	H	1.0331	0.2665	0.0157	1.0	.
C7	C	1.2189(2)	0.39394(16)	0.01511(9)	1.0	.
H7	H	1.2743	0.3534	-0.0217	1.0	.
C8	C	1.2791(2)	0.50135(16)	0.04628(8)	1.0	.
H8	H	1.3777	0.5346	0.0312	1.0	.
C9	C	1.1971(2)	0.56555(15)	0.10132(8)	1.0	.
C10	C	1.2546(2)	0.67673(15)	0.13319(8)	1.0	.
C11	C	1.1774(2)	0.73898(15)	0.18883(8)	1.0	.
C12	C	1.2377(2)	0.85266(15)	0.22228(8)	1.0	.
C13	C	1.1585(2)	0.91019(15)	0.27835(8)	1.0	.
C14	C	1.2151(2)	1.02458(16)	0.31180(9)	1.0	.
H14	H	1.3062	1.0631	0.2956	1.0	.
C15	C	1.1411(3)	1.07914(17)	0.36634(9)	1.0	.
H15	H	1.1799	1.1555	0.3875	1.0	.
C16	C	1.0067(3)	1.02312(17)	0.39173(9)	1.0	.
H16	H	0.9582	1.0609	0.4306	1.0	.
C17	C	0.9468(2)	0.91566(16)	0.36083(9)	1.0	.
H17	H	0.8558	0.8794	0.3784	1.0	.
C18	C	1.0175(2)	0.85540(16)	0.30230(8)	1.0	.
C19	C	0.8088(2)	0.69722(15)	0.29654(9)	1.0	.
C20	C	0.6912(2)	0.67071(16)	0.32651(9)	1.0	.
C21	C	0.3917(3)	0.74662(16)	0.41367(10)	1.0	.
H21	H	0.2905	0.7390	0.3819	1.0	.
C22	C	0.3145(3)	0.7340(2)	0.47664(11)	1.0	.
H22A	H	0.4081	0.7449	0.5102	1.0	.
H22B	H	0.2608	0.6563	0.4708	1.0	.
H22C	H	0.2257	0.7927	0.4890	1.0	.
C23	C	0.4699(3)	0.86887(17)	0.42084(10)	1.0	.
H23A	H	0.3803	0.9263	0.4347	1.0	.
H23B	H	0.5115	0.8771	0.3798	1.0	.
H23C	H	0.5681	0.8816	0.4526	1.0	.
C24	C	0.6926(2)	0.58594(16)	0.44422(9)	1.0	.
H24	H	0.6184	0.5594	0.4754	1.0	.
C25	C	0.8053(3)	0.69094(17)	0.48107(9)	1.0	.
H25A	H	0.8817	0.6671	0.5132	1.0	.
H25B	H	0.7290	0.7524	0.5021	1.0	.
H25C	H	0.8769	0.7202	0.4514	1.0	.
C26	C	0.8111(2)	0.48578(17)	0.41565(9)	1.0	.
H26A	H	0.8813	0.5081	0.3833	1.0	.
H26B	H	0.7388	0.4167	0.3959	1.0	.
H26C	H	0.8889	0.4685	0.4494	1.0	.
C27	C	0.4163(2)	0.49127(15)	0.33529(8)	1.0	.
H27	H	0.5023	0.4417	0.3085	1.0	.
C28	C	0.3358(2)	0.41589(17)	0.37626(9)	1.0	.
H28A	H	0.2499	0.4608	0.4035	1.0	.
H28B	H	0.4283	0.3916	0.4030	1.0	.
H28C	H	0.2777	0.3470	0.3485	1.0	.
C29	C	0.2754(2)	0.52063(17)	0.28880(9)	1.0	.
H29A	H	0.2279	0.4487	0.2606	1.0	.
H29B	H	0.3274	0.5698	0.2633	1.0	.
H29C	H	0.1810	0.5621	0.3129	1.0	.
C30	C	1.3769(2)	0.91557(16)	0.20142(8)	1.0	.
C31	C	1.4866(2)	0.98107(16)	0.18940(8)	1.0	.
C32	C	1.7920(2)	0.98376(15)	0.10914(9)	1.0	.
H32	H	1.7188	0.9624	0.0684	1.0	.
C33	C	1.9586(3)	1.04561(17)	0.09566(10)	1.0	.
H33A	H	2.0377	1.0623	0.1338	1.0	.
H33B	H	1.9279	1.1185	0.0842	1.0	.
H33C	H	2.0168	0.9955	0.0604	1.0	.
C34	C	1.8378(2)	0.87037(15)	0.12853(9)	1.0	.
H34A	H	1.9103	0.8236	0.0965	1.0	.
H34B	H	1.7299	0.8267	0.1315	1.0	.
H34C	H	1.9025	0.8885	0.1700	1.0	.
C35	C	1.5387(2)	1.18942(16)	0.13544(9)	1.0	.
H35	H	1.6286	1.2461	0.1277	1.0	.
C36	C	1.4444(3)	1.13315(17)	0.07118(9)	1.0	.
H36A	H	1.3609	1.0733	0.0770	1.0	.
H36B	H	1.5304	1.0977	0.0408	1.0	.
H36C	H	1.3816	1.1926	0.0548	1.0	.
C37	C	1.4079(3)	1.25722(17)	0.18018(9)	1.0	.
H37A	H	1.3482	1.3123	0.1594	1.0	.
H37B	H	1.4701	1.2997	0.2195	1.0	.
H37C	H	1.3215	1.2031	0.1903	1.0	.
C38	C	1.7919(2)	1.14266(16)	0.24567(9)	1.0	.
H38	H	1.8846	1.0856	0.2495	1.0	.
C39	C	1.6885(3)	1.15980(17)	0.30670(9)	1.0	.
H39A	H	1.7663	1.1937	0.3438	1.0	.
H39B	H	1.6418	1.0845	0.3109	1.0	.
H39C	H	1.5916	1.2121	0.3041	1.0	.
C40	C	1.8876(3)	1.25685(16)	0.24348(10)	1.0	.
H40A	H	1.8019	1.3174	0.2429	1.0	.
H40B	H	1.9545	1.2450	0.2050	1.0	.
H40C	H	1.9675	1.2809	0.2812	1.0	.
C41	C	0.6598(2)	0.54747(17)	0.16603(9)	1.0	.
H41A	H	0.6437	0.6316	0.1759	1.0	.
H41B	H	0.5630	0.5096	0.1824	1.0	.
H41C	H	0.6616	0.5182	0.1198	1.0	.
C42	C	1.3532(2)	0.78204(16)	0.06066(8)	1.0	.
H42A	H	1.3109	0.7246	0.0224	1.0	.
H42B	H	1.4570	0.8232	0.0511	1.0	.
H42C	H	1.2613	0.8378	0.0744	1.0	.
