data_k03277_config-1
loop_
 _symmetry_equiv_pos_as_xyz
'x, y, z'
'-x, y+1/2, -z'

_cell_length_a	8.6921(2)
_cell_length_b	17.7256(4)
_cell_length_c	13.3778(3)
_cell_angle_alpha	90.00
_cell_angle_beta	100.0938(10)
_cell_angle_gamma	90.00
loop_
 _atom_site_label
 _atom_site_type_symbol
 _atom_site_fract_x
 _atom_site_fract_y
 _atom_site_fract_z
 _atom_site_occupancy
 _atom_site_disorder_group
Si1	Si	-0.04570(10)	-0.03780(5)	0.17079(6)	1.0	.
Si2	Si	0.17579(11)	0.61525(5)	0.29366(7)	1.0	.
C1	C	0.0320(4)	0.21085(18)	0.2143(2)	1.0	.
C2	C	-0.0754(4)	0.25326(19)	0.2601(2)	1.0	.
C3	C	-0.2086(4)	0.22053(19)	0.2873(2)	1.0	.
H3	H	-0.2284	0.1685	0.2734	1.0	.
C4	C	-0.3134(4)	0.26132(19)	0.3340(3)	1.0	.
C5	C	-0.4474(4)	0.2276(2)	0.3625(3)	1.0	.
H5	H	-0.4706	0.1762	0.3465	1.0	1
C6	C	-0.5430(4)	0.2682(2)	0.4124(2)	1.0	1
C7	C	-0.6827(15)	0.2458(7)	0.4434(11)	1.0	1
H7	H	-0.7275	0.1972	0.4300	1.0	1
C8	C	-0.7482(10)	0.3008(4)	0.4948(8)	1.0	1
H8	H	-0.8399	0.2933	0.5232	1.0	1
S9	S	-0.6467(4)	0.38529(17)	0.5026(3)	1.0	1
C10	C	-0.5095(4)	0.34602(19)	0.4365(2)	1.0	1
C11	C	-0.3837(4)	0.38060(19)	0.4089(3)	1.0	.
H11	H	-0.3642	0.4323	0.4248	1.0	1
C12	C	-0.2817(4)	0.3402(2)	0.3569(3)	1.0	.
C13	C	-0.1504(4)	0.37370(19)	0.3287(3)	1.0	.
H13	H	-0.1304	0.4256	0.3429	1.0	.
C14	C	-0.0468(4)	0.33247(18)	0.2797(2)	1.0	.
C15	C	0.0866(4)	0.36719(18)	0.2503(3)	1.0	.
C16	C	0.1919(4)	0.32493(18)	0.2031(3)	1.0	.
C17	C	0.3244(4)	0.3590(2)	0.1737(3)	1.0	.
H17	H	0.3461	0.4109	0.1877	1.0	1
C18	C	0.4215(4)	0.31700(19)	0.1247(3)	1.0	1
C19	C	0.5581(14)	0.3410(7)	0.0898(12)	1.0	1
H19	H	0.5967	0.3911	0.0979	1.0	1
C20	C	0.6299(8)	0.2855(3)	0.0434(6)	1.0	1
H20	H	0.7227	0.2929	0.0163	1.0	1
S21	S	0.5306(3)	0.19932(13)	0.0401(2)	1.0	1
C22	C	0.3899(4)	0.23839(19)	0.1034(3)	1.0	1
C23	C	0.2662(4)	0.20353(19)	0.1338(2)	1.0	.
H23	H	0.2491	0.1512	0.1210	1.0	1
C24	C	0.1626(4)	0.24473(18)	0.1842(3)	1.0	.
C25	C	0.0081(3)	0.13153(17)	0.1985(2)	1.0	.
C26	C	-0.0107(4)	0.06460(18)	0.1863(2)	1.0	.
C27	C	-0.0028(4)	-0.06750(17)	0.0433(2)	1.0	.
H27	H	-0.0957	-0.0528	-0.0082	1.0	.
C28	C	0.1402(4)	-0.0285(2)	0.0122(3)	1.0	.
H28A	H	0.2356	-0.0457	0.0565	1.0	.
H28B	H	0.1303	0.0263	0.0185	1.0	.
H28C	H	0.1455	-0.0413	-0.0584	1.0	.
C29	C	0.0131(5)	-0.15346(19)	0.0366(3)	1.0	.
H29A	H	0.0352	-0.1671	-0.0304	1.0	.
H29B	H	-0.0846	-0.1774	0.0468	1.0	.
H29C	H	0.0988	-0.1707	0.0893	1.0	.
C30	C	0.0844(4)	-0.08718(18)	0.2779(2)	1.0	.
H30	H	0.0632	-0.1425	0.2696	1.0	.
C31	C	0.2593(4)	-0.0755(2)	0.2792(3)	1.0	.
H31A	H	0.2827	-0.0214	0.2817	1.0	.
H31B	H	0.2878	-0.0973	0.2177	1.0	.
H31C	H	0.3192	-0.1003	0.3391	1.0	.
C32	C	0.0448(5)	-0.0640(2)	0.3806(3)	1.0	.
H32A	H	0.1033	-0.0957	0.4342	1.0	.
H32B	H	-0.0675	-0.0704	0.3794	1.0	.
H32C	H	0.0733	-0.0110	0.3941	1.0	.
C33	C	-0.2571(4)	-0.05241(19)	0.1811(3)	1.0	.
H33	H	-0.2713	-0.0293	0.2471	1.0	.
C34	C	-0.3074(5)	-0.1348(2)	0.1850(3)	1.0	.
H34A	H	-0.4146	-0.1371	0.1983	1.0	.
H34B	H	-0.2372	-0.1610	0.2393	1.0	.
H34C	H	-0.3026	-0.1591	0.1198	1.0	.
C35	C	-0.3657(5)	-0.0097(2)	0.0982(4)	1.0	.
H35A	H	-0.3626	-0.0331	0.0323	1.0	.
H35B	H	-0.3316	0.0430	0.0971	1.0	.
H35C	H	-0.4727	-0.0115	0.1121	1.0	.
C36	C	0.1142(4)	0.44653(18)	0.2663(2)	1.0	.
C37	C	0.1371(4)	0.51350(18)	0.2776(2)	1.0	.
C38	C	0.0496(4)	0.66467(18)	0.1851(2)	1.0	.
H38	H	0.0659	0.7201	0.1963	1.0	.
C39	C	0.0998(5)	0.6456(2)	0.0834(3)	1.0	.
H39A	H	0.0914	0.5910	0.0718	1.0	.
H39B	H	0.2083	0.6615	0.0855	1.0	.
H39C	H	0.0318	0.6720	0.0283	1.0	.
C40	C	-0.1251(4)	0.6493(2)	0.1800(3)	1.0	.
H40A	H	-0.1847	0.6745	0.1203	1.0	.
H40B	H	-0.1580	0.6688	0.2415	1.0	.
H40C	H	-0.1443	0.5949	0.1750	1.0	.
C41	C	0.1309(5)	0.64505(19)	0.4192(3)	1.0	.
H41	H	0.2304	0.6368	0.4682	1.0	.
C42	C	0.0146(7)	0.6000(3)	0.4592(4)	1.0	.
H42A	H	0.0072	0.6174	0.5277	1.0	.
H42B	H	0.0457	0.5468	0.4617	1.0	.
H42C	H	-0.0873	0.6056	0.4149	1.0	.
C43	C	0.0986(5)	0.72940(19)	0.4250(3)	1.0	.
H43A	H	0.0085	0.7428	0.3732	1.0	.
H43B	H	0.1904	0.7578	0.4132	1.0	.
H43C	H	0.0761	0.7417	0.4924	1.0	.
C44	C	0.3898(4)	0.6293(2)	0.2870(4)	1.0	.
H44	H	0.3995	0.6103	0.2181	1.0	.
C45	C	0.4975(6)	0.5841(3)	0.3545(7)	1.0	.
H45A	H	0.6022	0.5893	0.3375	1.0	.
H45B	H	0.4651	0.5311	0.3477	1.0	.
H45C	H	0.4994	0.6008	0.4245	1.0	.
C46	C	0.4359(5)	0.7121(2)	0.2848(3)	1.0	.
H46A	H	0.4181	0.7369	0.3472	1.0	.
H46B	H	0.3726	0.7368	0.2260	1.0	.
H46C	H	0.5467	0.7159	0.2796	1.0	.
