data_k04207_config-1
loop_
 _symmetry_equiv_pos_as_xyz
'x, y, z'
'-x, -y, -z'

_cell_length_a	12.1861(3)
_cell_length_b	13.1744(3)
_cell_length_c	17.6042(4)
_cell_angle_alpha	100.0786(10)
_cell_angle_beta	110.0423(11)
_cell_angle_gamma	99.2075(11)
loop_
 _atom_site_label
 _atom_site_type_symbol
 _atom_site_fract_x
 _atom_site_fract_y
 _atom_site_fract_z
 _atom_site_occupancy
 _atom_site_disorder_group
Si1	Si	1.27141(7)	-0.31658(6)	0.23663(5)	1.0	.
Si2	Si	0.66124(7)	0.28761(6)	0.27028(5)	1.0	.
C1	C	1.0486(2)	-0.0786(2)	0.25079(17)	1.0	.
C2	C	0.9849(2)	-0.0787(2)	0.30522(16)	1.0	.
C3	C	0.9875(2)	-0.1523(2)	0.35400(17)	1.0	.
H3	H	1.0314	-0.2050	0.3495	1.0	.
C4	C	0.9280(2)	-0.1508(2)	0.40892(16)	1.0	.
C5	C	0.9311(2)	-0.2245(2)	0.45933(16)	1.0	.
H5	H	0.9734	-0.2783	0.4545	1.0	1
C6	C	0.8759(2)	-0.2202(2)	0.51348(15)	1.0	1
S7	S	0.8720(4)	-0.2990(3)	0.5819(3)	1.0	1
C8	C	0.7859(17)	-0.2248(11)	0.6213(10)	1.0	1
H8	H	0.7583	-0.2412	0.6630	1.0	1
C9	C	0.7627(13)	-0.1425(12)	0.5869(9)	1.0	1
H9	H	0.7199	-0.0938	0.6024	1.0	1
C10	C	0.8124(2)	-0.1392(2)	0.52289(16)	1.0	1
C11	C	0.8061(2)	-0.0657(2)	0.47572(16)	1.0	.
H11	H	0.7640	-0.0122	0.4824	1.0	1
C12	C	0.8627(2)	-0.0695(2)	0.41678(16)	1.0	.
C13	C	0.8576(2)	0.0018(2)	0.36708(17)	1.0	.
H13	H	0.8127	0.0537	0.3711	1.0	.
C14	C	0.9164(2)	0.0002(2)	0.31108(16)	1.0	.
C15	C	0.9102(2)	0.0736(2)	0.26079(16)	1.0	.
C16	C	0.9758(2)	0.0747(2)	0.20826(16)	1.0	.
C17	C	0.9744(2)	0.1504(2)	0.16000(17)	1.0	.
H17	H	0.9289	0.2022	0.1627	1.0	1
C18	C	1.0388(2)	0.1491(2)	0.10936(15)	1.0	1
S19	S	1.0509(3)	0.2305(2)	0.04405(16)	1.0	1
C20	C	1.1464(5)	0.1610(4)	0.0118(4)	1.0	1
H20	H	1.1810	0.1805	-0.0259	1.0	1
C21	C	1.1659(15)	0.0776(12)	0.0455(10)	1.0	1
H21	H	1.2110	0.0297	0.0322	1.0	1
C22	C	1.1081(2)	0.0716(2)	0.10502(16)	1.0	1
C23	C	1.1119(2)	-0.0012(2)	0.15073(17)	1.0	.
H23	H	1.1590	-0.0516	0.1476	1.0	1
C24	C	1.0460(2)	-0.0030(2)	0.20343(16)	1.0	.
C25	C	1.1174(2)	-0.1565(2)	0.24541(17)	1.0	.
C26	C	1.1763(2)	-0.2214(2)	0.24112(17)	1.0	.
C27	C	1.2660(3)	-0.3432(2)	0.12401(17)	1.0	.
C28	C	1.1453(3)	-0.4161(3)	0.06216(19)	1.0	.
H28A	H	1.0794	-0.3854	0.0676	1.0	.
H28B	H	1.1369	-0.4861	0.0743	1.0	.
H28C	H	1.1424	-0.4233	0.0051	1.0	.
C29	C	1.2770(3)	-0.2395(3)	0.09473(19)	1.0	.
H29A	H	1.2777	-0.2549	0.0384	1.0	.
H29B	H	1.3518	-0.1887	0.1331	1.0	.
H29C	H	1.2084	-0.2092	0.0941	1.0	.
C30	C	1.3654(3)	-0.3967(3)	0.11482(19)	1.0	.
H30A	H	1.3567	-0.4643	0.1308	1.0	.
H30B	H	1.4442	-0.3503	0.1511	1.0	.
H30C	H	1.3587	-0.4099	0.0567	1.0	.
C31	C	1.4283(3)	-0.2445(2)	0.32038(18)	1.0	.
C32	C	1.4910(3)	-0.1594(3)	0.2893(2)	1.0	.
H32A	H	1.5688	-0.1212	0.3333	1.0	.
H32B	H	1.4406	-0.1093	0.2748	1.0	.
H32C	H	1.5036	-0.1935	0.2398	1.0	.
C33	C	1.5117(3)	-0.3205(3)	0.3426(2)	1.0	.
H33A	H	1.5178	-0.3588	0.2918	1.0	.
H33B	H	1.4786	-0.3714	0.3682	1.0	.
H33C	H	1.5918	-0.2795	0.3819	1.0	.
C34	C	1.4190(3)	-0.1849(3)	0.4002(2)	1.0	.
H34A	H	1.3850	-0.2360	0.4253	1.0	.
H34B	H	1.3667	-0.1360	0.3864	1.0	.
H34C	H	1.4992	-0.1447	0.4398	1.0	.
C35	C	1.1980(3)	-0.4409(2)	0.26161(19)	1.0	.
C36	C	1.2482(3)	-0.5370(2)	0.2397(2)	1.0	.
H36A	H	1.2100	-0.5979	0.2543	1.0	.
H36B	H	1.3353	-0.5197	0.2710	1.0	.
H36C	H	1.2313	-0.5547	0.1797	1.0	.
C37	C	1.2201(3)	-0.4189(3)	0.3554(2)	1.0	.
H37A	H	1.1975	-0.3529	0.3722	1.0	.
H37B	H	1.3054	-0.4118	0.3880	1.0	.
H37C	H	1.1714	-0.4778	0.3655	1.0	.
C38	C	1.0610(3)	-0.4711(3)	0.2144(2)	1.0	.
H38A	H	1.0259	-0.5327	0.2299	1.0	.
H38B	H	1.0420	-0.4888	0.1542	1.0	.
H38C	H	1.0275	-0.4112	0.2291	1.0	.
C39	C	0.8337(2)	0.1453(2)	0.26226(16)	1.0	.
C40	C	0.7646(2)	0.2020(2)	0.26340(16)	1.0	.
C41	C	0.6303(2)	0.3469(2)	0.17452(18)	1.0	.
C42	C	0.5403(3)	0.2668(2)	0.09404(18)	1.0	.
H42A	H	0.5312	0.2984	0.0465	1.0	.
H42B	H	0.4622	0.2483	0.0988	1.0	.
H42C	H	0.5701	0.2026	0.0855	1.0	.
C43	C	0.7471(3)	0.3770(2)	0.15910(19)	1.0	.
H43A	H	0.7774	0.3135	0.1489	1.0	.
H43B	H	0.8075	0.4295	0.2082	1.0	.
H43C	H	0.7305	0.4071	0.1104	1.0	.
C44	C	0.5802(3)	0.4463(2)	0.1853(2)	1.0	.
H44A	H	0.6405	0.5023	0.2321	1.0	.
H44B	H	0.5070	0.4287	0.1966	1.0	.
H44C	H	0.5613	0.4713	0.1341	1.0	.
C45	C	0.7478(3)	0.3927(2)	0.37438(18)	1.0	.
C46	C	0.8481(3)	0.4735(3)	0.3684(2)	1.0	.
H46A	H	0.8125	0.5156	0.3300	1.0	.
H46B	H	0.8993	0.4359	0.3476	1.0	.
H46C	H	0.8966	0.5205	0.4237	1.0	.
C47	C	0.6651(3)	0.4522(3)	0.4038(2)	1.0	.
H47A	H	0.7130	0.5047	0.4568	1.0	.
H47B	H	0.6042	0.4015	0.4116	1.0	.
H47C	H	0.6255	0.4883	0.3617	1.0	.
C48	C	0.8120(3)	0.3390(3)	0.44277(18)	1.0	.
H48A	H	0.8603	0.3933	0.4946	1.0	.
H48B	H	0.8645	0.3001	0.4247	1.0	.
H48C	H	0.7519	0.2895	0.4523	1.0	.
C49	C	0.5190(3)	0.1961(2)	0.26951(18)	1.0	.
C50	C	0.4817(3)	0.0924(2)	0.2021(2)	1.0	.
H50A	H	0.5464	0.0547	0.2145	1.0	.
H50B	H	0.4665	0.1083	0.1475	1.0	.
H50C	H	0.4084	0.0477	0.2010	1.0	.
C51	C	0.5427(3)	0.1640(3)	0.3520(2)	1.0	.
H51A	H	0.4722	0.1117	0.3473	1.0	.
H51B	H	0.5584	0.2268	0.3968	1.0	.
H51C	H	0.6128	0.1328	0.3649	1.0	.
C52	C	0.4121(3)	0.2490(2)	0.2527(2)	1.0	.
H52A	H	0.3425	0.2006	0.2532	1.0	.
H52B	H	0.3919	0.2654	0.1981	1.0	.
H52C	H	0.4338	0.3147	0.2962	1.0	.
O1S	O	0.71673(18)	0.81752(17)	0.11094(13)	1.0	.
C1S	C	0.6391(3)	0.8835(3)	0.1225(2)	1.0	.
H1S1	H	0.6656	0.9190	0.1824	1.0	.
H1S2	H	0.5558	0.8404	0.1032	1.0	.
C2S	C	0.6439(3)	0.9650(3)	0.0729(2)	1.0	.
H2S1	H	0.7265	1.0075	0.0927	1.0	.
H2S2	H	0.5909	1.0114	0.0799	1.0	.
H2S3	H	0.6173	0.9292	0.0137	1.0	.
C3S	C	0.7157(3)	0.7371(3)	0.1553(2)	1.0	.
H3S1	H	0.6329	0.6929	0.1364	1.0	.
H3S2	H	0.7438	0.7697	0.2159	1.0	.
C4S	C	0.7974(3)	0.6699(3)	0.1389(3)	1.0	.
H4S1	H	0.7688	0.6379	0.0789	1.0	.
H4S2	H	0.7976	0.6137	0.1688	1.0	.
H4S3	H	0.8791	0.7142	0.1584	1.0	.
