data_k15040_config-2
loop_
 _symmetry_equiv_pos_as_xyz
'x, y, z'
'-x, -y, -z'

_cell_length_a	8.3992(17)
_cell_length_b	10.526(2)
_cell_length_c	11.746(2)
_cell_angle_alpha	68.85(3)
_cell_angle_beta	80.94(3)
_cell_angle_gamma	76.25(3)
loop_
 _atom_site_label
 _atom_site_type_symbol
 _atom_site_fract_x
 _atom_site_fract_y
 _atom_site_fract_z
 _atom_site_occupancy
 _atom_site_disorder_group
Si1	Si	0.44113(14)	0.15346(11)	0.21376(9)	1.0	.
N1	N	0.2175(3)	0.3943(3)	0.5746(2)	1.0	.
C1	C	0.4724(4)	0.4206(3)	0.4284(3)	1.0	.
C2	C	0.3635(4)	0.4410(3)	0.5259(3)	1.0	.
C4	C	0.1327(4)	0.3234(4)	0.5343(3)	1.0	.
H4	H	0.1748	0.2973	0.4661	1.0	.
C5	C	-0.0095(5)	0.2925(4)	0.5931(4)	1.0	.
H5	H	-0.0661	0.2443	0.5659	1.0	.
C6	C	-0.0753(5)	0.3320(4)	0.6965(4)	1.0	.
H6	H	-0.1742	0.3089	0.7373	1.0	.
C7	C	0.0045(5)	0.4029(4)	0.7362(3)	1.0	.
H7	H	-0.0396	0.4281	0.8045	1.0	.
C8	C	0.1538(4)	0.4394(4)	0.6755(3)	1.0	.
C9	C	0.2569(4)	0.5138(4)	0.6900(3)	1.0	.
H9	H	0.2432	0.5551	0.7497	1.0	.
C10	C	0.3890(4)	0.5171(3)	0.5978(3)	1.0	.
C11	C	0.4559(4)	0.3389(3)	0.3572(3)	1.0	.
C12	C	0.4506(4)	0.2675(4)	0.2984(3)	1.0	.
C13	C	0.6407(7)	0.1296(6)	0.1217(5)	1.0	.
H13	H	0.6306	0.0738	0.0730	1.0	.
C14	C	0.6751(10)	0.2708(8)	0.0307(6)	1.0	.
H14A	H	0.7050	0.3217	0.0746	1.0	.
H14B	H	0.5781	0.3232	-0.0106	1.0	.
H14C	H	0.7635	0.2550	-0.0283	1.0	.
C15	C	0.7841(7)	0.0492(8)	0.2021(7)	1.0	.
H15A	H	0.8773	0.0188	0.1528	1.0	.
H15B	H	0.7519	-0.0300	0.2658	1.0	.
H15C	H	0.8128	0.1086	0.2381	1.0	.
C16	C	0.4117(6)	-0.0184(4)	0.3291(4)	1.0	.
H16	H	0.5094	-0.0542	0.3757	1.0	.
C17	C	0.4088(7)	-0.1260(5)	0.2707(5)	1.0	.
H17A	H	0.4041	-0.2141	0.3337	1.0	.
H17B	H	0.5065	-0.1347	0.2171	1.0	.
H17C	H	0.3139	-0.0968	0.2247	1.0	.
C18	C	0.2659(7)	-0.0098(6)	0.4223(5)	1.0	.
H18A	H	0.1671	0.0323	0.3807	1.0	.
H18B	H	0.2809	0.0453	0.4680	1.0	.
H18C	H	0.2577	-0.1016	0.4771	1.0	.
C19'	C	0.269(4)	0.245(3)	0.112(3)	1.0	2
H19'	H	0.2975	0.3321	0.0539	1.0	2
C20'	C	0.223(3)	0.1646(18)	0.0411(16)	1.0	2
H20D	H	0.1856	0.0836	0.0976	1.0	2
H20E	H	0.3180	0.1369	-0.0083	1.0	2
H20F	H	0.1376	0.2227	-0.0106	1.0	2
C21'	C	0.1051(14)	0.2786(14)	0.1772(11)	1.0	2
H21D	H	0.1160	0.3202	0.2353	1.0	2
H21E	H	0.0636	0.1947	0.2192	1.0	2
H21F	H	0.0301	0.3421	0.1186	1.0	2
