data_x05027_config-0
loop_
 _symmetry_equiv_pos_as_xyz
'x, y, z'
'-x, -y, -z'

_cell_length_a	9.2300(18)
_cell_length_b	24.680(5)
_cell_length_c	25.400(5)
_cell_angle_alpha	94.32(3)
_cell_angle_beta	95.14(3)
_cell_angle_gamma	90.35(3)
loop_
 _atom_site_label
 _atom_site_type_symbol
 _atom_site_fract_x
 _atom_site_fract_y
 _atom_site_fract_z
 _atom_site_occupancy
 _atom_site_disorder_group
Si1A	Si	0.26569(18)	0.32675(7)	0.46868(6)	1.0	.
Si2A	Si	0.16672(17)	0.17035(6)	0.01935(6)	1.0	.
Si5A	Si	0.4963(3)	0.33612(10)	0.51423(10)	1.0	.
Si3A	Si	0.1233(3)	0.25609(11)	0.49514(10)	1.0	.
Si4A	Si	0.1535(3)	0.41083(9)	0.46724(10)	1.0	.
Si6A	Si	0.2525(2)	0.08184(7)	0.02320(8)	1.0	.
Si7A	Si	0.33340(19)	0.23351(7)	-0.00772(7)	1.0	.
Si8A	Si	-0.06572(19)	0.17042(8)	-0.02604(8)	1.0	.
C1A	C	0.2361(6)	0.2643(2)	0.2993(2)	1.0	.
C2A	C	0.1006(6)	0.2749(2)	0.2716(2)	1.0	.
C3A	C	-0.0106(6)	0.3005(2)	0.2962(2)	1.0	.
H3A	H	0.0053	0.3117	0.3329	1.0	.
C4A	C	-0.1428(6)	0.3106(2)	0.2701(2)	1.0	.
C5A	C	-0.2553(6)	0.3369(2)	0.2957(3)	1.0	.
H5A	H	-0.2404	0.3470	0.3326	1.0	.
C6A	C	-0.3866(7)	0.3483(2)	0.2686(3)	1.0	.
C7A	C	-0.5015(7)	0.3747(3)	0.2941(3)	1.0	.
H7A	H	-0.4871	0.3853	0.3310	1.0	.
C8A	C	-0.6289(8)	0.3847(3)	0.2676(3)	1.0	.
H8A	H	-0.7041	0.4016	0.2858	1.0	.
C9A	C	-0.6529(7)	0.3702(3)	0.2121(3)	1.0	.
H9A	H	-0.7425	0.3785	0.1932	1.0	.
C10A	C	-0.5487(7)	0.3447(2)	0.1865(3)	1.0	.
H10A	H	-0.5672	0.3344	0.1497	1.0	.
C11A	C	-0.4110(6)	0.3324(2)	0.2127(2)	1.0	.
C12A	C	-0.3025(6)	0.3062(2)	0.1873(3)	1.0	.
H12A	H	-0.3191	0.2955	0.1505	1.0	.
C13A	C	-0.1691(6)	0.2949(2)	0.2141(2)	1.0	.
C14A	C	-0.0578(6)	0.2686(2)	0.1887(2)	1.0	.
H14A	H	-0.0737	0.2583	0.1518	1.0	.
C15A	C	0.0757(6)	0.2570(2)	0.2155(2)	1.0	.
C16A	C	0.1861(6)	0.2297(2)	0.1894(2)	1.0	.
C17A	C	0.3199(6)	0.2191(2)	0.2175(2)	1.0	.
C18A	C	0.4309(6)	0.1923(2)	0.1925(2)	1.0	.
H18A	H	0.4145	0.1811	0.1559	1.0	.
C19A	C	0.5653(6)	0.1814(2)	0.2194(2)	1.0	.
C20A	C	0.6769(6)	0.1552(2)	0.1940(2)	1.0	.
H20A	H	0.6603	0.1441	0.1573	1.0	.
C21A	C	0.8082(7)	0.1451(2)	0.2198(3)	1.0	.
C22A	C	0.9236(7)	0.1194(3)	0.1942(3)	1.0	.
H22A	H	0.9103	0.1089	0.1573	1.0	.
C23A	C	1.0516(8)	0.1100(3)	0.2218(3)	1.0	.
H23A	H	1.1269	0.0926	0.2040	1.0	.
C24A	C	1.0758(8)	0.1255(3)	0.2763(3)	1.0	.
H24A	H	1.1670	0.1184	0.2948	1.0	.
C25A	C	0.9714(7)	0.1503(3)	0.3027(3)	1.0	.
H25A	H	0.9899	0.1604	0.3395	1.0	.
C26A	C	0.8342(6)	0.1614(2)	0.2762(3)	1.0	.
C27A	C	0.7259(7)	0.1869(2)	0.3016(3)	1.0	.
H27A	H	0.7432	0.1974	0.3384	1.0	.
C28A	C	0.5909(6)	0.1982(2)	0.2755(2)	1.0	.
C29A	C	0.4799(6)	0.2251(2)	0.3005(2)	1.0	.
H29A	H	0.4958	0.2359	0.3373	1.0	.
C30A	C	0.3469(6)	0.2367(2)	0.2736(2)	1.0	.
C31A	C	0.2624(6)	0.2845(2)	0.3538(2)	1.0	.
C32A	C	0.2776(6)	0.3030(2)	0.3992(3)	1.0	.
C33A	C	0.6159(11)	0.3756(5)	0.4770(6)	1.0	.
H33A	H	0.7090	0.3828	0.4982	1.0	.
H33B	H	0.5698	0.4101	0.4693	1.0	.
H33C	H	0.6328	0.3549	0.4437	1.0	.
C34A	C	0.5813(10)	0.2705(4)	0.5271(4)	1.0	.
H34A	H	0.5983	0.2507	0.4934	1.0	.
H34B	H	0.5165	0.2490	0.5462	1.0	.
H34C	H	0.6741	0.2770	0.5487	1.0	.
C35A	C	0.4729(15)	0.3732(7)	0.5799(5)	1.0	.
H35A	H	0.5687	0.3825	0.5984	1.0	.
H35B	H	0.4194	0.3500	0.6014	1.0	.
H35C	H	0.4184	0.4066	0.5744	1.0	.
C36A	C	0.2273(12)	0.1916(4)	0.4813(7)	1.0	.
H36A	H	0.2876	0.1833	0.5134	1.0	.
H36B	H	0.2897	0.1964	0.4527	1.0	.
H36C	H	0.1586	0.1615	0.4706	1.0	.
C37A	C	0.0890(15)	0.2614(7)	0.5646(4)	1.0	.
H37A	H	0.0361	0.2949	0.5725	1.0	.
H37B	H	0.1818	0.2622	0.5867	1.0	.
H37C	H	0.0307	0.2301	0.5721	1.0	.
C38A	C	-0.0489(8)	0.2499(4)	0.4538(3)	1.0	.
H38A	H	-0.1061	0.2196	0.4643	1.0	.
H38B	H	-0.0298	0.2432	0.4165	1.0	.
H38C	H	-0.1034	0.2837	0.4582	1.0	.
C39A	C	0.084(2)	0.4249(7)	0.5336(4)	1.0	.
H39A	H	0.1656	0.4350	0.5600	1.0	.
H39B	H	0.0355	0.3922	0.5435	1.0	.
H39C	H	0.0147	0.4547	0.5321	1.0	.
C40A	C	-0.0057(10)	0.4081(4)	0.4188(4)	1.0	.
H40A	H	-0.0496	0.4441	0.4182	1.0	.
H40B	H	-0.0768	0.3819	0.4286	1.0	.
H40C	H	0.0240	0.3968	0.3836	1.0	.
C41A	C	0.2789(15)	0.4650(5)	0.4523(9)	1.0	.
H41A	H	0.3189	0.4549	0.4185	1.0	.
H41B	H	0.3584	0.4696	0.4806	1.0	.
H41C	H	0.2260	0.4991	0.4498	1.0	.
C42A	C	0.1634(6)	0.2117(2)	0.1344(3)	1.0	.
C43A	C	0.1538(6)	0.1949(2)	0.0888(2)	1.0	.
C44A	C	0.1337(9)	0.0433(3)	0.0640(3)	1.0	.
H44A	H	0.1757	0.0076	0.0695	1.0	.
H44B	H	0.0362	0.0386	0.0454	1.0	.
H44C	H	0.1272	0.0636	0.0984	1.0	.
C45A	C	0.4419(8)	0.0830(3)	0.0569(4)	1.0	.
H45A	H	0.4423	0.1016	0.0924	1.0	.
H45B	H	0.5070	0.1023	0.0360	1.0	.
H45C	H	0.4754	0.0456	0.0599	1.0	.
C46A	C	0.2459(11)	0.0470(3)	-0.0452(3)	1.0	.
H46A	H	0.2876	0.0107	-0.0433	1.0	.
H46B	H	0.3019	0.0684	-0.0675	1.0	.
H46C	H	0.1446	0.0438	-0.0605	1.0	.
C47A	C	0.4901(8)	0.2433(3)	0.0440(3)	1.0	.
H47A	H	0.5541	0.2723	0.0349	1.0	.
H47B	H	0.5446	0.2095	0.0458	1.0	.
H47C	H	0.4538	0.2533	0.0785	1.0	.
C48A	C	0.3999(9)	0.2102(4)	-0.0729(3)	1.0	.
H48A	H	0.3168	0.2041	-0.0995	1.0	.
H48B	H	0.4532	0.1762	-0.0694	1.0	.
H48C	H	0.4646	0.2380	-0.0839	1.0	.
C49A	C	0.2447(9)	0.2996(3)	-0.0121(4)	1.0	.
H49A	H	0.2038	0.3102	0.0214	1.0	.
H49B	H	0.1665	0.2969	-0.0410	1.0	.
H49C	H	0.3163	0.3270	-0.0191	1.0	.
C50A	C	-0.0556(11)	0.1479(6)	-0.0975(3)	1.0	.
H50A	H	-0.1537	0.1468	-0.1159	1.0	.
H50B	H	-0.0133	0.1116	-0.1004	1.0	.
H50C	H	0.0054	0.1735	-0.1136	1.0	.
C51A	C	-0.1410(9)	0.2383(3)	-0.0222(5)	1.0	.
H51A	H	-0.2420	0.2369	-0.0379	1.0	.
H51B	H	-0.0836	0.2623	-0.0416	1.0	.
H51C	H	-0.1381	0.2524	0.0150	1.0	.
C52A	C	-0.1900(8)	0.1224(4)	0.0014(4)	1.0	.
H52A	H	-0.1983	0.1333	0.0389	1.0	.
H52B	H	-0.1509	0.0856	-0.0020	1.0	.
H52C	H	-0.2862	0.1230	-0.0182	1.0	.
Si1B	Si	-1.02176(18)	0.58107(7)	0.22239(6)	1.0	.
Si2B	Si	-0.7956(3)	0.59781(10)	0.26871(12)	1.0	.
Si3B	Si	-1.1540(2)	0.51077(9)	0.25444(9)	1.0	.
Si4B	Si	-1.1502(3)	0.66112(9)	0.21391(10)	1.0	.
C1B	C	-0.9996(6)	0.5151(2)	0.0555(2)	1.0	.
C2B	C	-1.1231(7)	0.5249(2)	0.0211(2)	1.0	.
C3B	C	-1.2488(6)	0.5466(2)	0.0403(2)	1.0	.
H3B	H	-1.2507	0.5542	0.0774	1.0	.
C4B	C	-1.3714(7)	0.5575(2)	0.0072(3)	1.0	.
C5B	C	-1.4981(7)	0.5790(2)	0.0265(3)	1.0	.
H5B	H	-1.5010	0.5856	0.0637	1.0	.
C6B	C	-1.6192(7)	0.5909(2)	-0.0064(3)	1.0	.
C7B	C	-1.7492(8)	0.6115(2)	0.0132(3)	1.0	.
H7B	H	-1.7545	0.6181	0.0503	1.0	.
C8B	C	-1.8644(8)	0.6216(3)	-0.0206(4)	1.0	.
H8B	H	-1.9514	0.6342	-0.0068	1.0	.
C9B	C	-1.8596(8)	0.6138(3)	-0.0761(4)	1.0	.
H9B	H	-1.9421	0.6219	-0.0992	1.0	.
C10B	C	-1.7366(8)	0.5949(3)	-0.0964(3)	1.0	.
H10B	H	-1.7334	0.5902	-0.1337	1.0	.
C11B	C	-1.6131(7)	0.5820(2)	-0.0625(3)	1.0	.
C12B	C	-1.4903(7)	0.5605(3)	-0.0831(3)	1.0	.
H12B	H	-1.4888	0.5544	-0.1204	1.0	.
C13B	C	-1.3683(7)	0.5475(2)	-0.0500(3)	1.0	.
C14B	C	-1.2451(7)	0.5236(2)	-0.0689(2)	1.0	.
H14B	H	-1.2439	0.5154	-0.1061	1.0	.
C15B	C	-1.1233(7)	0.5113(2)	-0.0356(2)	1.0	.
C16B	C	-0.9963(6)	0.5337(2)	0.1098(3)	1.0	.
C17B	C	-0.9975(6)	0.5530(2)	0.1549(3)	1.0	.
C18B	C	-0.6760(11)	0.6299(5)	0.2240(7)	1.0	.
H18B	H	-0.7247	0.6616	0.2097	1.0	.
H18C	H	-0.6566	0.6036	0.1947	1.0	.
H18D	H	-0.5840	0.6415	0.2440	1.0	.
C19B	C	-0.7079(10)	0.5357(4)	0.2905(4)	1.0	.
H19A	H	-0.6071	0.5441	0.3044	1.0	.
H19B	H	-0.7089	0.5084	0.2604	1.0	.
H19C	H	-0.7609	0.5215	0.3184	1.0	.
C20B	C	-0.8199(16)	0.6473(6)	0.3258(6)	1.0	.
H20B	H	-0.8492	0.6279	0.3555	1.0	.
H20C	H	-0.8952	0.6732	0.3155	1.0	.
H20D	H	-0.7280	0.6668	0.3365	1.0	.
C21B	C	-1.0494(10)	0.4471(3)	0.2409(4)	1.0	.
H21A	H	-0.9756	0.4429	0.2705	1.0	.
H21B	H	-1.0019	0.4494	0.2082	1.0	.
H21C	H	-1.1161	0.4157	0.2370	1.0	.
C22B	C	-1.1760(14)	0.5221(5)	0.3255(4)	1.0	.
H22B	H	-1.2210	0.4899	0.3379	1.0	.
H22C	H	-1.2383	0.5536	0.3316	1.0	.
H22D	H	-1.0805	0.5290	0.3452	1.0	.
C23B	C	-1.3391(8)	0.5053(4)	0.2174(4)	1.0	.
H23B	H	-1.3900	0.4731	0.2272	1.0	.
H23C	H	-1.3293	0.5022	0.1792	1.0	.
H23D	H	-1.3948	0.5379	0.2265	1.0	.
C24B	C	-1.2254(15)	0.6799(6)	0.2795(4)	1.0	.
H24B	H	-1.3050	0.7056	0.2744	1.0	.
H24C	H	-1.1483	0.6967	0.3046	1.0	.
H24D	H	-1.2620	0.6471	0.2937	1.0	.
C25B	C	-1.3058(10)	0.6515(4)	0.1635(4)	1.0	.
H25B	H	-1.3627	0.6848	0.1630	1.0	.
H25C	H	-1.3673	0.6214	0.1721	1.0	.
H25D	H	-1.2704	0.6430	0.1286	1.0	.
C26B	C	-1.0310(15)	0.7144(4)	0.1919(7)	1.0	.
H26A	H	-0.9728	0.6984	0.1644	1.0	.
H26B	H	-0.9662	0.7296	0.2221	1.0	.
H26C	H	-1.0912	0.7434	0.1774	1.0	.
Si1C	Si	0.52240(18)	0.91727(7)	0.27816(6)	1.0	.
Si2C	Si	0.4002(3)	0.97158(9)	0.21764(9)	1.0	.
Si3C	Si	0.4149(3)	0.83090(9)	0.27820(9)	1.0	.
C1C	C	0.5009(6)	0.9841(2)	0.4451(2)	1.0	.
C2C	C	0.6243(6)	0.9751(2)	0.4800(2)	1.0	.
C3C	C	0.7488(6)	0.9520(2)	0.4617(2)	1.0	.
H3C	H	0.7501	0.9423	0.4249	1.0	.
C4C	C	0.8723(6)	0.9425(2)	0.4954(2)	1.0	.
C5C	C	0.9991(6)	0.9195(2)	0.4769(3)	1.0	.
H5C	H	1.0015	0.9106	0.4399	1.0	.
C6C	C	1.1192(7)	0.9096(2)	0.5103(3)	1.0	.
C7C	C	1.2489(7)	0.8874(2)	0.4922(3)	1.0	.
H7C	H	1.2538	0.8789	0.4553	1.0	.
C8C	C	1.3652(7)	0.8782(3)	0.5262(3)	1.0	.
H8C	H	1.4506	0.8633	0.5129	1.0	.
C9C	C	1.3621(7)	0.8904(3)	0.5812(3)	1.0	.
H9C	H	1.4450	0.8835	0.6046	1.0	.
C10C	C	1.2424(7)	0.9117(3)	0.6008(3)	1.0	.
H10C	H	1.2423	0.9201	0.6379	1.0	.
C11C	C	1.1163(6)	0.9219(2)	0.5669(3)	1.0	.
C12C	C	0.9923(6)	0.9440(2)	0.5857(2)	1.0	.
H12C	H	0.9895	0.9516	0.6228	1.0	.
C13C	C	0.8705(6)	0.9556(2)	0.5517(2)	1.0	.
C14C	C	0.7459(6)	0.9795(2)	0.5703(2)	1.0	.
H14C	H	0.7445	0.9888	0.6072	1.0	.
C15C	C	0.6232(6)	0.9901(2)	0.5362(2)	1.0	.
C16C	C	0.5013(6)	0.9661(2)	0.3906(2)	1.0	.
C17C	C	0.5045(6)	0.9484(3)	0.3450(2)	1.0	.
C18C	C	0.4472(13)	1.0439(4)	0.2383(6)	1.0	.
H18E	H	0.3885	1.0675	0.2156	1.0	.
H18F	H	0.5506	1.0504	0.2348	1.0	.
H18G	H	0.4272	1.0520	0.2753	1.0	.
C19C	C	0.1990(9)	0.9635(4)	0.2179(4)	1.0	.
H19D	H	0.1700	0.9757	0.2530	1.0	.
H19E	H	0.1716	0.9251	0.2097	1.0	.
H19F	H	0.1500	0.9853	0.1912	1.0	.
C20C	C	0.4457(12)	0.9482(5)	0.1490(3)	1.0	.
H20E	H	0.4347	0.9785	0.1262	1.0	.
H20F	H	0.3799	0.9184	0.1346	1.0	.
H20G	H	0.5464	0.9356	0.1505	1.0	.
C22C	C	0.4290(12)	0.7904(4)	0.2148(4)	1.0	.
H22E	H	0.3901	0.7537	0.2171	1.0	.
H22F	H	0.5312	0.7883	0.2074	1.0	.
H22G	H	0.3730	0.8078	0.1862	1.0	.
C21C	C	0.2272(12)	0.8356(5)	0.2950(7)	1.0	.
H21D	H	0.1648	0.8460	0.2642	1.0	.
H21E	H	0.2211	0.8630	0.3247	1.0	.
H21F	H	0.1949	0.8002	0.3052	1.0	.
C23C	C	0.515(2)	0.7956(5)	0.3335(5)	1.0	.
H23E	H	0.6084	0.8142	0.3441	1.0	.
H23F	H	0.5324	0.7578	0.3213	1.0	.
H23G	H	0.4565	0.7965	0.3639	1.0	.
Si4C	Si	0.7687(2)	0.91418(15)	0.26890(12)	1.0	.
C24C	C	0.8081(9)	0.8733(4)	0.2095(3)	1.0	.
H24E	H	0.7830	0.8936	0.1783	1.0	.
H24F	H	0.7507	0.8395	0.2065	1.0	.
H24G	H	0.9120	0.8647	0.2116	1.0	.
C25C	C	0.8616(15)	0.8843(13)	0.3230(5)	1.0	.
H25E	H	0.9273	0.9113	0.3431	1.0	.
H25F	H	0.9181	0.8535	0.3098	1.0	.
H25G	H	0.7910	0.8716	0.3460	1.0	.
C26C	C	0.8342(14)	0.9841(7)	0.2678(12)	1.0	.
H26D	H	0.8344	0.9934	0.2309	1.0	.
H26E	H	0.9332	0.9875	0.2852	1.0	.
H26F	H	0.7700	1.0088	0.2865	1.0	.
