data_x13009sx_config-2
loop_
 _symmetry_equiv_pos_as_xyz
'x, y, z'
'-x, -y, -z'

_cell_length_a	9.0185(2)
_cell_length_b	11.1498(2)
_cell_length_c	13.6960(3)
_cell_angle_alpha	84.062(1)
_cell_angle_beta	89.316(1)
_cell_angle_gamma	81.541(1)
loop_
 _atom_site_label
 _atom_site_type_symbol
 _atom_site_fract_x
 _atom_site_fract_y
 _atom_site_fract_z
 _atom_site_occupancy
 _atom_site_disorder_group
Si1	Si	0.51241(12)	0.86219(9)	0.78360(8)	1.0	.
C1	C	0.5014(4)	0.5889(3)	0.5670(2)	1.0	.
C2	C	0.6222(4)	0.5685(3)	0.5010(2)	1.0	.
C3	C	0.7451(4)	0.6321(3)	0.5001(2)	1.0	.
H3	H	0.7467	0.6913	0.5452	1.0	.
C4	C	0.8649(4)	0.6122(3)	0.4362(2)	1.0	.
C5	C	0.9893(4)	0.6764(3)	0.4369(3)	1.0	.
C6'	C	1.1040(4)	0.6543(3)	0.3731(3)	1.0	2
C7'	C	1.240(2)	0.7075(19)	0.3707(15)	1.0	2
H7'	H	1.2650	0.7615	0.4151	1.0	2
F1'	F	1.4622(7)	0.6972(7)	0.2688(5)	1.0	2
C8'	C	1.3252(12)	0.6696(11)	0.2971(9)	1.0	2
S9'	S	1.2592(7)	0.5597(7)	0.2325(5)	1.0	2
C10'	C	1.1018(4)	0.5659(3)	0.3035(3)	1.0	2
C11	C	0.9841(4)	0.5024(3)	0.3009(3)	1.0	.
C12	C	0.8622(4)	0.5230(3)	0.3666(2)	1.0	.
C13	C	0.7407(4)	0.4593(3)	0.3671(2)	1.0	.
H13	H	0.7391	0.4007	0.3216	1.0	.
C14	C	0.6205(4)	0.4781(3)	0.4323(2)	1.0	.
C15	C	0.5024(4)	0.6786(3)	0.6347(3)	1.0	.
C16	C	0.5039(4)	0.7528(3)	0.6922(3)	1.0	.
C17'	C	0.477(3)	0.788(4)	0.916(8)	1.0	2
H17'	H	0.5149	0.8392	0.9633	1.0	2
C18'	C	0.315(2)	0.7717(18)	0.9467(15)	1.0	2
H18C	H	0.3088	0.7609	1.0192	1.0	2
H18D	H	0.2459	0.8461	0.9230	1.0	2
C19'	C	0.267(3)	0.664(2)	0.9060(15)	1.0	2
H19C	H	0.3603	0.6106	0.8911	1.0	2
H19D	H	0.2188	0.6955	0.8419	1.0	2
C20'	C	0.165(4)	0.581(3)	0.957(3)	1.0	2
H20D	H	0.1451	0.5215	0.9130	1.0	2
H20E	H	0.0708	0.6299	0.9739	1.0	2
H20F	H	0.2143	0.5388	1.0169	1.0	2
C21'	C	0.575(4)	0.662(5)	0.929(3)	1.0	2
H21D	H	0.6794	0.6713	0.9132	1.0	2
H21E	H	0.5393	0.6086	0.8850	1.0	2
H21F	H	0.5691	0.6265	0.9972	1.0	2
C22	C	0.3650(6)	0.9988(4)	0.7486(3)	1.0	.
H22	H	0.2668	0.9671	0.7496	1.0	.
C23	C	0.3524(8)	1.0915(5)	0.8239(4)	1.0	.
H23A	H	0.3427	1.0474	0.8896	1.0	.
H23B	H	0.4477	1.1258	0.8235	1.0	.
C24	C	0.2287(8)	1.1938(6)	0.8112(6)	1.0	.
H24A	H	0.2269	1.2323	0.7427	1.0	.
H24B	H	0.2441	1.2559	0.8553	1.0	.
C25	C	0.0841(9)	1.1490(7)	0.8344(6)	1.0	.
H25A	H	0.0526	1.1101	0.7787	1.0	.
H25B	H	0.0078	1.2177	0.8471	1.0	.
H25C	H	0.0963	1.0896	0.8928	1.0	.
C26	C	0.3837(7)	1.0568(5)	0.6451(4)	1.0	.
H26A	H	0.2989	1.1210	0.6284	1.0	.
H26B	H	0.3873	0.9947	0.5991	1.0	.
H26C	H	0.4772	1.0921	0.6408	1.0	.
C27'	C	0.725(2)	0.8767(16)	0.7911(11)	1.0	2
H27'	H	0.7866	0.8016	0.8235	1.0	2
C28'	C	0.7848(12)	0.9190(11)	0.6908(9)	1.0	2
H28C	H	0.7673	1.0092	0.6809	1.0	2
H28D	H	0.7293	0.8883	0.6391	1.0	2
C29'	C	0.9558(15)	0.873(2)	0.6808(16)	1.0	2
H29C	H	1.0076	0.8842	0.7418	1.0	2
H29D	H	0.9702	0.7849	0.6731	1.0	2
C30'	C	1.027(3)	0.9395(18)	0.5944(15)	1.0	2
H30D	H	1.1330	0.9061	0.5907	1.0	2
H30E	H	1.0165	1.0265	0.6030	1.0	2
H30F	H	0.9759	0.9288	0.5337	1.0	2
C31'	C	0.733(6)	0.996(3)	0.847(2)	1.0	2
H31D	H	0.6798	0.9894	0.9096	1.0	2
H31E	H	0.6870	1.0691	0.8060	1.0	2
H31F	H	0.8385	1.0032	0.8595	1.0	2
