data_x17079_config-2
loop_
 _symmetry_equiv_pos_as_xyz
'x, y, z'
'-x, -y, -z'

_cell_length_a	7.9881(2)
_cell_length_b	11.5993(3)
_cell_length_c	13.0399(3)
_cell_angle_alpha	91.329(1)
_cell_angle_beta	106.459(1)
_cell_angle_gamma	106.815(1)
loop_
 _atom_site_label
 _atom_site_type_symbol
 _atom_site_fract_x
 _atom_site_fract_y
 _atom_site_fract_z
 _atom_site_occupancy
 _atom_site_disorder_group
Si1	Si	0.02409(9)	0.24054(5)	0.88544(5)	1.0	.
C1	C	0.0175(3)	0.43776(19)	0.59503(18)	1.0	.
C2'	C	0.1727(3)	0.5107(2)	0.56969(18)	1.0	2
C3'	C	0.3702(14)	0.5487(19)	0.6169(13)	1.0	2
H3'	H	0.424712	0.524718	0.684214	1.0	2
C4'	C	0.4752(14)	0.619(11)	0.563(6)	1.0	2
S5'	S	0.3391(11)	0.6567(8)	0.4429(6)	1.0	2
C6'	C	0.1541(3)	0.57151(19)	0.47659(17)	1.0	2
C7'	C	0.6739(17)	0.6816(13)	0.5854(11)	1.0	2
S8'	S	0.8256(8)	0.6440(5)	0.6951(4)	1.0	2
C9'	C	1.0153(15)	0.7344(12)	0.6629(13)	1.0	2
C10'	C	1.1987(19)	0.751(2)	0.718(2)	1.0	2
H10'	H	1.232676	0.712199	0.780700	1.0	2
C11'	C	1.329(3)	0.827(3)	0.680(3)	1.0	2
H11'	H	1.455124	0.839756	0.716276	1.0	2
C12'	C	1.278(3)	0.884(3)	0.588(3)	1.0	2
H12'	H	1.371073	0.936251	0.562804	1.0	2
C13'	C	1.096(3)	0.867(2)	0.533(2)	1.0	2
H13'	H	1.062863	0.906172	0.470915	1.0	2
C14'	C	0.961(2)	0.7907(13)	0.5708(13)	1.0	2
C15'	C	0.766(2)	0.7583(12)	0.5289(10)	1.0	2
H15'	H	0.705218	0.788229	0.466558	1.0	2
C16	C	0.0315(3)	0.3778(2)	0.68966(18)	1.0	.
C17	C	0.0340(3)	0.3268(2)	0.76942(19)	1.0	.
C18	C	-0.1761(3)	0.2560(2)	0.92879(19)	1.0	.
H18	H	-0.129263	0.333736	0.977451	1.0	.
C19	C	-0.3366(4)	0.2666(2)	0.8361(2)	1.0	.
H19A	H	-0.391235	0.190646	0.787744	1.0	.
H19B	H	-0.292091	0.333282	0.796088	1.0	.
H19C	H	-0.429213	0.282827	0.865000	1.0	.
C20	C	-0.2427(4)	0.1552(3)	0.9956(2)	1.0	.
H20A	H	-0.338072	0.171377	1.021869	1.0	.
H20B	H	-0.139456	0.152984	1.056916	1.0	.
H20C	H	-0.293220	0.076956	0.950560	1.0	.
C21	C	-0.0049(3)	0.0794(2)	0.83775(18)	1.0	.
H21	H	-0.009099	0.030871	0.899897	1.0	.
C22	C	-0.1841(4)	0.0227(2)	0.7470(2)	1.0	.
H22A	H	-0.189457	0.073464	0.687839	1.0	.
H22B	H	-0.288447	0.016954	0.774172	1.0	.
H22C	H	-0.189310	-0.058526	0.720891	1.0	.
C23	C	0.1601(4)	0.0719(2)	0.8023(2)	1.0	.
H23A	H	0.141567	-0.012420	0.777086	1.0	.
H23B	H	0.272372	0.101077	0.863417	1.0	.
H23C	H	0.171556	0.122309	0.743853	1.0	.
C24	C	0.2509(3)	0.3093(2)	0.99169(19)	1.0	.
H24	H	0.347717	0.313263	0.956036	1.0	.
C25	C	0.2870(4)	0.2338(2)	1.0856(2)	1.0	.
H25A	H	0.411613	0.271316	1.134154	1.0	.
H25B	H	0.274489	0.151527	1.057680	1.0	.
H25C	H	0.198120	0.230134	1.124955	1.0	.
C26	C	0.2791(4)	0.4405(2)	1.0345(2)	1.0	.
H26A	H	0.193736	0.440603	1.075663	1.0	.
H26B	H	0.255985	0.488121	0.973903	1.0	.
H26C	H	0.405485	0.476332	1.081275	1.0	.
