data_k02250_config-0
loop_
 _symmetry_equiv_pos_as_xyz
'+x,+y,+z'
'-x,-y,-z'

_cell_length_a	11.0990(2)
_cell_length_b	12.5990(3)
_cell_length_c	12.6140(3)
_cell_angle_alpha	74.5740(8)
_cell_angle_beta	82.8670(8)
_cell_angle_gamma	84.5280(10)
loop_
 _atom_site_label
 _atom_site_type_symbol
 _atom_site_fract_x
 _atom_site_fract_y
 _atom_site_fract_z
 _atom_site_occupancy
 _atom_site_disorder_group
C10A	C	0.5854	0.6722	0.3178	1.0	.
C10B	C	0.4211	0.3327	0.1893	1.0	.
C11A	C	0.5455	0.5859	0.4091	1.0	.
C11B	C	0.4582	0.4162	0.0948	1.0	.
C12A	C	0.2789	0.4053	0.4921	1.0	.
C12B	C	0.7196	0.6029	-0.0024	1.0	.
C13A	C	0.1846	0.3680	0.4845	1.0	.
C13B	C	0.8102	0.6477	-0.0006	1.0	.
C14A	C	0.0161	0.3590	0.3191	1.0	.
C14B	C	0.9424	0.7179	0.1606	1.0	.
C15A	C	-0.0769	0.3205	0.5633	1.0	.
C15B	C	1.0818	0.6761	-0.0484	1.0	.
C16A	C	0.1049	0.1492	0.4888	1.0	.
C16B	C	0.8935	0.8753	-0.0614	1.0	.
C17A	C	0.1731	0.1087	0.5932	1.0	.
C17B	C	0.8914	0.8980	-0.1869	1.0	.
C18A	C	0.2106	-0.0146	0.6222	1.0	.
C18B	C	0.8634	1.0192	-0.2461	1.0	.
C19A	C	0.2864	-0.0511	0.7182	1.0	.
C19B	C	0.7366	1.0636	-0.2201	1.0	.
C1A	C	0.3907	0.4526	0.4966	1.0	.
C1B	C	0.6097	0.5508	-0.0023	1.0	.
C2A	C	0.4337	0.5372	0.4047	1.0	.
C2B	C	0.5700	0.4675	0.0933	1.0	.
C3A	C	0.3722	0.5735	0.3095	1.0	.
C3B	C	0.6354	0.4344	0.1862	1.0	.
C4A	C	0.4144	0.6569	0.2196	1.0	.
C4B	C	0.5969	0.3530	0.2795	1.0	.
C5A	C	0.3544	0.6915	0.1204	1.0	.
C5B	C	0.6614	0.3211	0.3754	1.0	.
C6A	C	0.3977	0.7729	0.0344	1.0	.
C6B	C	0.6222	0.2404	0.4647	1.0	.
C7A	C	0.5020	0.8269	0.0404	1.0	.
C7B	C	0.5151	0.1865	0.4648	1.0	.
C8A	C	0.5626	0.7969	0.1320	1.0	.
C8B	C	0.4503	0.2149	0.3768	1.0	.
C9A	C	0.5230	0.7095	0.2248	1.0	.
C9B	C	0.4868	0.3001	0.2802	1.0	.
CLA	Cl	0.2076	-0.0224	0.8421	1.0	.
CLB	Cl	0.6263	0.9969	-0.2688	1.0	.
H10A	H	0.6576	0.7059	0.3204	1.0	.
H10B	H	0.3487	0.2977	0.1905	1.0	.
H14A	H	-0.0174	0.4353	0.3109	1.0	.
H14B	H	-0.0443	0.3153	0.3028	1.0	.
H14C	H	0.0897	0.3580	0.2677	1.0	.
H14D	H	0.8646	0.7458	0.1923	1.0	.
H14E	H	1.0077	0.7617	0.1682	1.0	.
H14F	H	0.9591	0.6405	0.1998	1.0	.
H15A	H	-0.0537	0.2929	0.6388	1.0	.
H15B	H	-0.1450	0.2805	0.5546	1.0	.
H15C	H	-0.1013	0.3994	0.5493	1.0	.
H15D	H	1.0998	0.5993	-0.0083	1.0	.
H15E	H	1.1466	0.7213	-0.0426	1.0	.
H15F	H	1.0766	0.6802	-0.1264	1.0	.
H16A	H	0.0329	0.1057	0.4976	1.0	.
H16B	H	0.1590	0.1370	0.4239	1.0	.
H16C	H	0.8121	0.8972	-0.0290	1.0	.
H16D	H	0.9523	0.9229	-0.0471	1.0	.
H17A	H	0.2470	0.1503	0.5821	1.0	.
H17B	H	0.1204	0.1258	0.6566	1.0	.
H17C	H	0.9715	0.8730	-0.2191	1.0	.
H17D	H	0.8295	0.8533	-0.2013	1.0	.
H18A	H	0.1364	-0.0564	0.6401	1.0	.
H18B	H	0.2574	-0.0331	0.5566	1.0	.
H18C	H	0.9209	1.0645	-0.2263	1.0	.
H18D	H	0.8783	1.0277	-0.3268	1.0	.
H19A	H	0.3630	-0.0127	0.6991	1.0	.
H19B	H	0.3078	-0.1313	0.7320	1.0	.
H19C	H	0.7295	1.1439	-0.2549	1.0	.
H19D	H	0.7193	1.0524	-0.1391	1.0	.
H3A	H	0.2999	0.5403	0.3063	1.0	.
H3B	H	0.7083	0.4686	0.1853	1.0	.
H5A	H	0.2837	0.6570	0.1150	1.0	.
H5B	H	0.7326	0.3567	0.3768	1.0	.
H6A	H	0.3575	0.7941	-0.0310	1.0	.
H6B	H	0.6666	0.2197	0.5276	1.0	.
H7A	H	0.5298	0.8848	-0.0205	1.0	.
H7B	H	0.4890	0.1299	0.5276	1.0	.
H8A	H	0.6320	0.8344	0.1347	1.0	.
H8B	H	0.3791	0.1780	0.3787	1.0	.
SIA	Si	0.0545	0.2993	0.4634	1.0	.
SIB	Si	0.9347	0.7283	0.0123	1.0	.
