data_k08209_config-2
loop_
 _symmetry_equiv_pos_as_xyz
'x, y, z'
'-x, y+1/2, -z+1/2'
'-x, -y, -z'
'x, -y-1/2, z-1/2'

_cell_length_a	14.3331(3)
_cell_length_b	9.1144(2)
_cell_length_c	18.7459(4)
_cell_angle_alpha	90.00
_cell_angle_beta	91.4719(10)
_cell_angle_gamma	90.00
loop_
 _atom_site_label
 _atom_site_type_symbol
 _atom_site_fract_x
 _atom_site_fract_y
 _atom_site_fract_z
 _atom_site_occupancy
 _atom_site_disorder_group
Si1	Si	0.30842(4)	0.56106(6)	0.30211(3)	1.0	.
N1	N	-0.05569(12)	-0.3311(2)	0.28630(10)	1.0	.
N2	N	-0.23426(12)	-0.3566(2)	0.45104(9)	1.0	.
C1	C	0.06546(12)	0.5110(2)	0.44463(10)	1.0	.
C2	C	0.01212(12)	0.3809(2)	0.45113(9)	1.0	.
C3	C	0.02149(12)	0.2622(2)	0.40364(10)	1.0	.
H3	H	0.0638	0.2701	0.3656	1.0	.
C4	C	-0.02969(12)	0.1340(2)	0.41118(9)	1.0	.
C5	C	-0.02109(12)	0.0125(2)	0.36372(10)	1.0	.
H5	H	0.0206	0.0189	0.3253	1.0	.
C6	C	-0.07171(12)	-0.1125(2)	0.37266(10)	1.0	.
C7	C	-0.13608(13)	-0.1239(2)	0.43070(10)	1.0	.
C8	C	-0.14598(12)	-0.0093(2)	0.47667(10)	1.0	.
H8	H	-0.1883	-0.0177	0.5146	1.0	.
C9	C	-0.09420(12)	0.1228(2)	0.46896(10)	1.0	.
C10	C	-0.10428(12)	0.2395(2)	0.51503(10)	1.0	.
H10	H	-0.1470	0.2311	0.5527	1.0	.
C11	C	-0.05350(12)	0.3701(2)	0.50811(9)	1.0	.
C12	C	0.13664(12)	0.5206(2)	0.39261(10)	1.0	.
C13	C	0.20179(13)	0.5364(2)	0.35358(10)	1.0	.
C14	C	0.38266(14)	0.7037(2)	0.34895(11)	1.0	.
H14	H	0.3710	0.7982	0.3231	1.0	.
C15	C	0.36458(15)	0.7338(3)	0.42827(13)	1.0	.
H15A	H	0.3175	0.8123	0.4331	1.0	.
H15B	H	0.3415	0.6440	0.4518	1.0	.
C16	C	0.45815(16)	0.7814(4)	0.46207(15)	1.0	.
H16A	H	0.4523	0.8797	0.4840	1.0	.
H16B	H	0.4783	0.7110	0.4996	1.0	.
C17	C	0.52768(16)	0.7853(3)	0.40385(14)	1.0	.
H17A	H	0.5901	0.7539	0.4218	1.0	.
H17B	H	0.5326	0.8852	0.3835	1.0	.
C18	C	0.48866(14)	0.6777(3)	0.34857(13)	1.0	.
H18A	H	0.5040	0.5754	0.3621	1.0	.
H18B	H	0.5138	0.6982	0.3009	1.0	.
C19	C	0.26931(14)	0.6308(2)	0.21245(10)	1.0	.
C20	C	0.20277(13)	0.7644(2)	0.21978(11)	1.0	.
C21'	C	0.2341(19)	0.866(4)	0.161(2)	1.0	2
H21C	H	0.2581	0.9583	0.1823	1.0	2
H21D	H	0.1802	0.8901	0.1291	1.0	2
C22'	C	0.3108(6)	0.7934(11)	0.1175(5)	1.0	2
H22C	H	0.2834	0.7353	0.0775	1.0	2
H22D	H	0.3534	0.8680	0.0981	1.0	2
C23'	C	0.3619(14)	0.695(2)	0.1711(12)	1.0	2
H23C	H	0.4041	0.7507	0.2036	1.0	2
H23D	H	0.3971	0.6157	0.1475	1.0	2
C24	C	0.36430(13)	0.3758(2)	0.30014(11)	1.0	.
C25'	C	0.297(3)	0.254(3)	0.2704(14)	1.0	2
H25C	H	0.2375	0.2977	0.2530	1.0	2
H25D	H	0.3258	0.2017	0.2301	1.0	2
C26'	C	0.2789(6)	0.1463(12)	0.3308(5)	1.0	2
H26C	H	0.2270	0.1799	0.3607	1.0	2
H26D	H	0.2649	0.0466	0.3125	1.0	2
C27'	C	0.3711(7)	0.1509(11)	0.3715(5)	1.0	2
H27C	H	0.4197	0.0963	0.3459	1.0	2
H27D	H	0.3654	0.1090	0.4199	1.0	2
C28'	C	0.394(4)	0.315(3)	0.3751(15)	1.0	2
H28C	H	0.4615	0.3302	0.3846	1.0	2
H28D	H	0.3585	0.3633	0.4131	1.0	2
C29	C	-0.06218(13)	-0.2352(2)	0.32414(11)	1.0	.
C30	C	-0.19034(13)	-0.2567(2)	0.44083(10)	1.0	.
