data_k13077u_config-0
loop_
 _symmetry_equiv_pos_as_xyz
'x, y, z'
'-x, -y, -z'

_cell_length_a	6.9251(2)
_cell_length_b	10.8246(3)
_cell_length_c	11.7644(3)
_cell_angle_alpha	93.6395(13)
_cell_angle_beta	95.0042(12)
_cell_angle_gamma	104.4825(12)
loop_
 _atom_site_label
 _atom_site_type_symbol
 _atom_site_fract_x
 _atom_site_fract_y
 _atom_site_fract_z
 _atom_site_occupancy
 _atom_site_disorder_group
Ge1	Ge	0.74006(4)	0.82683(2)	0.12073(2)	1.0	.
F1	F	0.0645(2)	0.85524(12)	0.37713(11)	1.0	.
F2	F	-0.2257(2)	0.89745(13)	0.50605(12)	1.0	.
F3	F	-0.2951(2)	0.78078(14)	0.69810(12)	1.0	.
F4	F	-0.0896(2)	0.60901(14)	0.76481(11)	1.0	.
C1	C	0.5434(3)	0.56665(19)	0.40060(16)	1.0	.
C2	C	0.3950(3)	0.59222(19)	0.46807(16)	1.0	.
C3	C	0.2878(3)	0.68186(19)	0.43810(17)	1.0	.
H3	H	0.3160	0.7264	0.3720	1.0	.
C4	C	0.1416(3)	0.70658(19)	0.50304(17)	1.0	.
C5	C	0.0282(3)	0.7948(2)	0.47258(18)	1.0	.
C6	C	-0.1145(3)	0.8167(2)	0.53565(19)	1.0	.
C7	C	-0.1541(3)	0.7530(2)	0.63649(19)	1.0	.
C8	C	-0.0515(3)	0.6686(2)	0.66871(18)	1.0	.
C9	C	0.0995(3)	0.64016(19)	0.60412(17)	1.0	.
C10	C	0.2033(3)	0.5516(2)	0.63421(17)	1.0	.
H10	H	0.1740	0.5077	0.7005	1.0	.
C11	C	0.3517(3)	0.52482(19)	0.56898(16)	1.0	.
C12	C	0.5930(3)	0.6391(2)	0.30432(17)	1.0	.
C13	C	0.6406(3)	0.7047(2)	0.22792(17)	1.0	.
C14	C	0.9931(4)	0.7976(3)	0.0806(3)	1.0	.
H14A	H	1.0046	0.8130	-0.0009	1.0	.
H14B	H	1.1042	0.8616	0.1268	1.0	.
C15	C	1.0205(6)	0.6667(4)	0.0978(4)	1.0	.
H15A	H	0.9966	0.6465	0.1762	1.0	.
H15B	H	1.1577	0.6647	0.0850	1.0	.
H15C	H	0.9251	0.6033	0.0434	1.0	.
C16	C	0.5434(4)	0.8011(3)	-0.0125(2)	1.0	.
H16A	H	0.4216	0.8232	0.0113	1.0	.
H16B	H	0.5983	0.8610	-0.0689	1.0	.
C17	C	0.4837(5)	0.6656(3)	-0.0707(3)	1.0	.
H17A	H	0.6020	0.6442	-0.0982	1.0	.
H17B	H	0.3822	0.6599	-0.1356	1.0	.
H17C	H	0.4286	0.6054	-0.0158	1.0	.
C18	C	0.7749(4)	0.9960(2)	0.2011(2)	1.0	.
H18A	H	0.8937	1.0134	0.2586	1.0	.
H18B	H	0.8022	1.0613	0.1453	1.0	.
C19	C	0.5949(5)	1.0107(3)	0.2612(2)	1.0	.
H19A	H	0.4761	0.9936	0.2051	1.0	.
H19B	H	0.6216	1.0982	0.2975	1.0	.
H19C	H	0.5710	0.9497	0.3198	1.0	.
