data_x07154_config-0
loop_
 _symmetry_equiv_pos_as_xyz
'x, y, z'
'-x, -y, -z'

_cell_length_a	8.0780(4)
_cell_length_b	14.5896(6)
_cell_length_c	16.0401(7)
_cell_angle_alpha	69.721(2)
_cell_angle_beta	79.347(2)
_cell_angle_gamma	88.957(2)
loop_
 _atom_site_label
 _atom_site_type_symbol
 _atom_site_fract_x
 _atom_site_fract_y
 _atom_site_fract_z
 _atom_site_occupancy
 _atom_site_disorder_group
Si1A	Si	0.22466(7)	0.92378(4)	0.38213(4)	1.0	.
C1A	C	0.4409(2)	0.97307(14)	0.09401(13)	1.0	.
C2A	C	0.3371(2)	1.02526(13)	0.03357(13)	1.0	.
C3A	C	0.1749(2)	1.05099(14)	0.06445(13)	1.0	.
H3A	H	0.1341	1.0316	0.1278	1.0	.
C4A	C	0.0729(3)	1.10326(14)	0.00638(13)	1.0	.
C5A	C	-0.0933(3)	1.12648(14)	0.04011(13)	1.0	.
H5A	H	-0.1369	1.1067	0.1033	1.0	.
C6A	C	-0.1849(3)	1.17709(14)	-0.02059(14)	1.0	.
O7A	O	-0.34565(18)	1.20567(11)	-0.00523(10)	1.0	.
C8A	C	-0.3848(3)	1.26075(15)	-0.09156(14)	1.0	.
H8A1	H	-0.4865	1.2312	-0.1005	1.0	.
H8A2	H	-0.4071	1.3289	-0.0954	1.0	.
O9A	O	-0.24303(19)	1.25942(11)	-0.15914(10)	1.0	.
C10A	C	-0.1226(3)	1.20933(14)	-0.11519(14)	1.0	.
C11A	C	0.0317(3)	1.19018(14)	-0.15129(13)	1.0	.
H11A	H	0.0708	1.2130	-0.2150	1.0	.
C12A	C	0.1352(3)	1.13403(14)	-0.09024(13)	1.0	.
C13A	C	0.2927(3)	1.10735(14)	-0.12097(13)	1.0	.
H13A	H	0.3324	1.1263	-0.1844	1.0	.
C14A	C	0.3970(2)	1.05323(13)	-0.06222(13)	1.0	.
C15A	C	0.3797(2)	0.94784(14)	0.18865(13)	1.0	.
C16A	C	0.3216(3)	0.93048(15)	0.26766(14)	1.0	.
C17A	C	0.1891(3)	0.79351(18)	0.45834(16)	1.0	.
H17A	H	0.1080	0.7607	0.4371	1.0	.
H17B	H	0.2969	0.7605	0.4543	1.0	.
C18A	C	0.1214(5)	0.7813(2)	0.55731(17)	1.0	.
H18A	H	0.2035	0.8107	0.5798	1.0	.
H18B	H	0.1026	0.7115	0.5936	1.0	.
H18C	H	0.0146	0.8138	0.5620	1.0	.
C19A	C	0.3734(3)	0.98815(17)	0.42231(16)	1.0	.
H19A	H	0.3152	0.9953	0.4796	1.0	.
H19B	H	0.4703	0.9467	0.4358	1.0	.
C20A	C	0.4402(4)	1.08877(19)	0.35570(19)	1.0	.
H20A	H	0.4985	1.0828	0.2987	1.0	.
H20B	H	0.5191	1.1166	0.3812	1.0	.
H20C	H	0.3459	1.1317	0.3443	1.0	.
C21A	C	0.0226(3)	0.9868(2)	0.37248(18)	1.0	.
H21A	H	-0.0301	0.9887	0.4327	1.0	.
H21B	H	0.0481	1.0553	0.3308	1.0	.
C22A	C	-0.1046(4)	0.9392(3)	0.3383(2)	1.0	.
H22A	H	-0.0540	0.9369	0.2786	1.0	.
H22B	H	-0.2055	0.9775	0.3335	1.0	.
H22C	H	-0.1358	0.8725	0.3808	1.0	.
Si1B	Si	0.28541(7)	0.49846(4)	0.36914(4)	1.0	.
C1B	C	0.4400(3)	0.48729(14)	0.09182(13)	1.0	.
C2B	C	0.3382(2)	0.53196(13)	0.02737(13)	1.0	.
C3B	C	0.1769(3)	0.56341(14)	0.05194(13)	1.0	.
H3B	H	0.1341	0.5524	0.1141	1.0	.
C4B	C	0.0787(3)	0.60945(14)	-0.01055(13)	1.0	.
C5B	C	-0.0857(3)	0.64020(14)	0.01624(14)	1.0	.
H5B	H	-0.1321	0.6286	0.0781	1.0	.
C6B	C	-0.1716(3)	0.68584(14)	-0.04891(14)	1.0	.
O7B	O	-0.32951(18)	0.72006(11)	-0.04006(10)	1.0	.
C8B	C	-0.3598(3)	0.76950(16)	-0.12914(14)	1.0	.
H8B1	H	-0.3688	0.8404	-0.1404	1.0	.
H8B2	H	-0.4667	0.7436	-0.1364	1.0	.
O9B	O	-0.2218(2)	0.75349(12)	-0.19134(10)	1.0	.
C10B	C	-0.1062(3)	0.70573(15)	-0.14200(14)	1.0	.
C11B	C	0.0458(3)	0.67790(16)	-0.17172(14)	1.0	.
H11B	H	0.0866	0.6912	-0.2344	1.0	.
C12B	C	0.1443(3)	0.62734(14)	-0.10532(13)	1.0	.
C13B	C	0.3001(3)	0.59411(14)	-0.12968(13)	1.0	.
H13B	H	0.3413	0.6040	-0.1917	1.0	.
C14B	C	0.4002(3)	0.54621(14)	-0.06609(13)	1.0	.
C15B	C	0.3853(3)	0.48166(14)	0.18313(13)	1.0	.
C16B	C	0.3441(3)	0.48426(15)	0.25817(14)	1.0	.
C17B	C	0.2569(3)	0.37373(17)	0.45761(15)	1.0	.
H17C	H	0.2491	0.3801	0.5177	1.0	.
H17D	H	0.1489	0.3430	0.4573	1.0	.
C18B	C	0.3986(4)	0.30671(18)	0.44469(18)	1.0	.
H18D	H	0.4009	0.2952	0.3878	1.0	.
H18E	H	0.3793	0.2442	0.4953	1.0	.
H18F	H	0.5067	0.3376	0.4426	1.0	.
C19B	C	0.4584(3)	0.56876(16)	0.38629(15)	1.0	.
H19C	H	0.4189	0.5833	0.4424	1.0	.
H19D	H	0.5551	0.5263	0.3962	1.0	.
C20B	C	0.5214(3)	0.66479(18)	0.30967(17)	1.0	.
H20D	H	0.5715	0.6512	0.2549	1.0	.
H20E	H	0.6066	0.6976	0.3273	1.0	.
H20F	H	0.4267	0.7072	0.2976	1.0	.
C21B	C	0.0890(3)	0.56767(17)	0.36833(15)	1.0	.
H21C	H	0.0509	0.5719	0.4292	1.0	.
H21D	H	0.1162	0.6352	0.3249	1.0	.
C22B	C	-0.0561(3)	0.5241(2)	0.3435(2)	1.0	.
H22D	H	-0.0163	0.5115	0.2871	1.0	.
H22E	H	-0.1467	0.5701	0.3352	1.0	.
H22F	H	-0.0989	0.4626	0.3921	1.0	.
