data_x08135_config-0
loop_
 _symmetry_equiv_pos_as_xyz
'x, y, z'
'-x, -y, -z'

_cell_length_a	11.5502(6)
_cell_length_b	11.6710(6)
_cell_length_c	13.6657(7)
_cell_angle_alpha	66.252(2)
_cell_angle_beta	83.719(2)
_cell_angle_gamma	79.414(2)
loop_
 _atom_site_label
 _atom_site_type_symbol
 _atom_site_fract_x
 _atom_site_fract_y
 _atom_site_fract_z
 _atom_site_occupancy
 _atom_site_disorder_group
Si1	Si	0.13246(3)	0.17048(4)	0.31995(3)	1.0	.
Si2	Si	0.90414(4)	0.74531(4)	0.20501(3)	1.0	.
F1	F	0.38415(8)	0.13946(8)	0.67504(7)	1.0	.
F2	F	0.51771(9)	0.09598(9)	0.84171(7)	1.0	.
F3	F	0.70857(9)	0.20652(9)	0.81177(8)	1.0	.
F4	F	0.76825(8)	0.37462(9)	0.61563(7)	1.0	.
F5	F	0.60345(8)	0.84175(9)	-0.14368(7)	1.0	.
F6	F	0.47243(9)	0.88803(9)	-0.31304(7)	1.0	.
F7	F	0.28624(8)	0.77138(9)	-0.28721(7)	1.0	.
F8	F	0.22499(8)	0.60128(9)	-0.09375(7)	1.0	.
C1	C	0.39612(13)	0.42337(14)	0.27740(12)	1.0	.
C2	C	0.46474(13)	0.39660(14)	0.36583(12)	1.0	.
C3	C	0.43833(13)	0.30839(14)	0.46832(12)	1.0	.
H3	H	0.3732	0.2649	0.4785	1.0	.
C4	C	0.50490(13)	0.28367(14)	0.55422(12)	1.0	.
C5	C	0.47826(14)	0.19758(14)	0.65922(13)	1.0	.
C6	C	0.54422(14)	0.17444(15)	0.74261(13)	1.0	.
C7	C	0.64450(14)	0.23509(15)	0.72701(13)	1.0	.
C8	C	0.67311(14)	0.31784(15)	0.62912(13)	1.0	.
C9	C	0.60546(13)	0.34695(14)	0.53923(12)	1.0	.
C10	C	0.63225(13)	0.43339(14)	0.43905(12)	1.0	.
H10	H	0.6982	0.4755	0.4293	1.0	.
C11	C	0.56453(13)	0.46065(14)	0.35121(12)	1.0	.
C12	C	0.59227(13)	0.55019(14)	0.24916(12)	1.0	.
C13	C	0.52236(13)	0.57886(14)	0.16132(12)	1.0	.
C14	C	0.54876(13)	0.66860(14)	0.05974(12)	1.0	.
H14	H	0.6140	0.7116	0.0504	1.0	.
C15	C	0.48220(13)	0.69559(14)	-0.02649(12)	1.0	.
C16	C	0.50930(14)	0.78365(14)	-0.13034(13)	1.0	.
C17	C	0.44544(14)	0.80773(14)	-0.21477(13)	1.0	.
C18	C	0.34701(14)	0.74514(15)	-0.20111(13)	1.0	.
C19	C	0.31754(13)	0.66094(15)	-0.10424(13)	1.0	.
C20	C	0.38263(13)	0.63141(14)	-0.01261(12)	1.0	.
C21	C	0.35540(13)	0.54349(14)	0.08698(12)	1.0	.
H21	H	0.2896	0.5015	0.0957	1.0	.
C22	C	0.42265(13)	0.51469(14)	0.17560(12)	1.0	.
C23	C	0.30262(13)	0.35327(14)	0.29038(12)	1.0	.
C24	C	0.22846(13)	0.28817(14)	0.30190(12)	1.0	.
C25	C	0.07428(15)	0.20521(16)	0.18726(13)	1.0	.
H25A	H	0.0294	0.2921	0.1600	1.0	.
H25B	H	0.1414	0.2025	0.1362	1.0	.
C26	C	-0.00544(17)	0.11243(18)	0.19144(15)	1.0	.
H26A	H	0.0408	0.0277	0.2100	1.0	.
H26B	H	-0.0393	0.1400	0.1214	1.0	.
H26C	H	-0.0690	0.1099	0.2456	1.0	.
C27	C	0.00867(14)	0.18042(15)	0.41712(13)	1.0	.
H27A	H	-0.0385	0.1128	0.4292	1.0	.
H27B	H	0.0422	0.1632	0.4862	1.0	.
C28	C	-0.07344(15)	0.30661(17)	0.38350(15)	1.0	.
H28A	H	-0.0285	0.3743	0.3736	1.0	.
H28B	H	-0.1356	0.3029	0.4391	1.0	.
H28C	H	-0.1091	0.3239	0.3161	1.0	.
C29	C	0.22601(15)	0.01210(15)	0.37459(14)	1.0	.
H29A	H	0.1760	-0.0541	0.3902	1.0	.
H29B	H	0.2862	0.0050	0.3191	1.0	.
C30	C	0.28822(16)	-0.01367(17)	0.47609(14)	1.0	.
H30A	H	0.3427	0.0474	0.4602	1.0	.
H30B	H	0.3324	-0.0998	0.5020	1.0	.
H30C	H	0.2295	-0.0051	0.5312	1.0	.
C31	C	0.69121(13)	0.61301(14)	0.23445(12)	1.0	.
C32	C	0.77404(14)	0.66757(14)	0.22137(12)	1.0	.
C33	C	0.88447(16)	0.89762(16)	0.08560(13)	1.0	.
H33A	H	0.9541	0.9398	0.0769	1.0	.
H33B	H	0.8833	0.8782	0.0216	1.0	.
C34	C	0.77417(17)	0.99079(17)	0.08810(16)	1.0	.
H34A	H	0.7041	0.9535	0.0899	1.0	.
H34B	H	0.7746	1.0693	0.0240	1.0	.
H34C	H	0.7728	1.0095	0.1520	1.0	.
C35	C	1.03458(14)	0.63551(16)	0.18413(14)	1.0	.
H35A	H	1.1027	0.6820	0.1576	1.0	.
H35B	H	1.0549	0.5656	0.2538	1.0	.
C36	C	1.01469(15)	0.57930(17)	0.10528(14)	1.0	.
H36A	H	0.9464	0.5346	0.1301	1.0	.
H36B	H	1.0848	0.5198	0.1004	1.0	.
H36C	H	1.0002	0.6474	0.0346	1.0	.
C37	C	0.91257(15)	0.76841(16)	0.33155(14)	1.0	.
H37A	H	0.9927	0.7845	0.3359	1.0	.
H37B	H	0.8560	0.8439	0.3299	1.0	.
C38	C	0.88522(17)	0.65389(17)	0.43085(14)	1.0	.
H38A	H	0.8044	0.6404	0.4289	1.0	.
H38B	H	0.8934	0.6691	0.4951	1.0	.
H38C	H	0.9403	0.5786	0.4323	1.0	.
