data_x09103_config-2
loop_
 _symmetry_equiv_pos_as_xyz
'x, y, z'
'-x, -y, -z'

_cell_length_a	5.8978(2)
_cell_length_b	14.1866(4)
_cell_length_c	26.4214(8)
_cell_angle_alpha	78.673(2)
_cell_angle_beta	84.728(2)
_cell_angle_gamma	84.507(2)
loop_
 _atom_site_label
 _atom_site_type_symbol
 _atom_site_fract_x
 _atom_site_fract_y
 _atom_site_fract_z
 _atom_site_occupancy
 _atom_site_disorder_group
Si1A	Si	0.7075(3)	0.71178(12)	0.08637(6)	1.0	.
C1A	C	1.2863(12)	0.5401(4)	0.0184(2)	1.0	.
C2A	C	1.3955(11)	0.4586(4)	0.0490(2)	1.0	.
C3A	C	1.2951(12)	0.4135(4)	0.0970(2)	1.0	.
H3A	H	1.1451	0.4359	0.1079	1.0	.
C4A	C	1.4083(12)	0.3371(4)	0.1290(2)	1.0	.
C5A	C	1.3106(13)	0.2936(5)	0.1784(2)	1.0	.
H5A	H	1.1609	0.3153	0.1899	1.0	.
C6A	C	1.4285(13)	0.2219(5)	0.2090(3)	1.0	.
H6A	H	1.3604	0.1937	0.2418	1.0	.
C7A	C	1.6499(13)	0.1881(4)	0.1933(2)	1.0	.
H7A	H	1.7309	0.1384	0.2158	1.0	.
C8A	C	1.7491(13)	0.2255(4)	0.1465(2)	1.0	.
H8A	H	1.8981	0.2010	0.1361	1.0	.
C9A	C	1.6310(11)	0.3022(4)	0.1121(2)	1.0	.
C10A	C	1.7293(11)	0.3428(4)	0.0634(2)	1.0	.
H10A	H	1.8769	0.3184	0.0521	1.0	.
C11A	C	1.6137(11)	0.4189(4)	0.0313(2)	1.0	.
C12A	C	1.0796(11)	0.5868(4)	0.0383(2)	1.0	.
C13A	C	0.9170(12)	0.6310(4)	0.0576(2)	1.0	.
C14A	C	0.5512(12)	0.7907(4)	0.0337(2)	1.0	.
H14A	H	0.4207	0.7563	0.0277	1.0	.
H14B	H	0.4865	0.8491	0.0467	1.0	.
C15A	C	0.6800(12)	0.8242(4)	-0.0194(2)	1.0	.
H15A	H	0.7309	0.7659	-0.0347	1.0	.
C16A	C	0.8918(13)	0.8741(5)	-0.0138(2)	1.0	.
H16A	H	0.9608	0.9006	-0.0482	1.0	.
H16B	H	1.0023	0.8273	0.0050	1.0	.
H16C	H	0.8484	0.9264	0.0054	1.0	.
C17A	C	0.5298(13)	0.8914(5)	-0.0567(3)	1.0	.
H17A	H	0.4814	0.9501	-0.0430	1.0	.
H17B	H	0.3951	0.8592	-0.0610	1.0	.
H17C	H	0.6160	0.9084	-0.0903	1.0	.
C18A	C	0.8819(12)	0.7822(4)	0.1205(2)	1.0	.
H18A	H	0.9266	0.7395	0.1530	1.0	.
H18B	H	1.0242	0.7962	0.0984	1.0	.
C19A	C	0.7741(13)	0.8768(5)	0.1341(3)	1.0	.
H19A	H	0.7054	0.9156	0.1025	1.0	.
C20A	C	0.9540(14)	0.9347(5)	0.1488(3)	1.0	.
H20A	H	1.0258	0.8978	0.1793	1.0	.
H20B	H	0.8815	0.9958	0.1565	1.0	.
H20C	H	1.0703	0.9477	0.1199	1.0	.
C21A	C	0.5843(16)	0.8612(6)	0.1772(3)	1.0	.
H21A	H	0.6464	0.8218	0.2084	1.0	.
H21B	H	0.4643	0.8280	0.1663	1.0	.
H21C	H	0.5199	0.9237	0.1847	1.0	.
C22A	C	0.4975(12)	0.6394(5)	0.1319(2)	1.0	.
H22A	H	0.3600	0.6829	0.1376	1.0	.
H22B	H	0.4506	0.5897	0.1142	1.0	.
C23A	C	0.5743(12)	0.5881(4)	0.1854(2)	1.0	.
H23A	H	0.6190	0.6378	0.2039	1.0	.
C24A	C	0.3759(13)	0.5377(5)	0.2172(2)	1.0	.
H24A	H	0.3271	0.4900	0.1991	1.0	.
H24B	H	0.2481	0.5855	0.2219	1.0	.
H24C	H	0.4252	0.5052	0.2512	1.0	.
C25A	C	0.7758(12)	0.5165(5)	0.1805(2)	1.0	.
H25A	H	0.8197	0.4852	0.2151	1.0	.
H25B	H	0.9041	0.5499	0.1612	1.0	.
H25C	H	0.7351	0.4677	0.1621	1.0	.
Si1B	Si	0.3640(3)	0.79112(12)	0.41360(6)	1.0	.
C1B	C	0.8180(12)	0.9563(4)	0.4833(2)	1.0	.
C2B	C	0.9048(12)	0.9164(4)	0.5312(2)	1.0	.
C3B	C	0.8214(12)	0.8364(4)	0.5645(2)	1.0	.
H3B	H	0.6941	0.8094	0.5550	1.0	.
C4B	C	0.9120(13)	0.7943(4)	0.6104(2)	1.0	.
C5B	C	0.8266(13)	0.7123(5)	0.6452(2)	1.0	.
H5B	H	0.6948	0.6860	0.6373	1.0	.
C6B	C	0.9291(14)	0.6713(5)	0.6889(2)	1.0	.
H6B	H	0.8692	0.6163	0.7106	1.0	.
C7B	C	1.1245(13)	0.7089(5)	0.7031(2)	1.0	.
H7B	H	1.1948	0.6798	0.7340	1.0	.
C8B	C	1.2071(13)	0.7871(5)	0.6716(2)	1.0	.
H8B	H	1.3370	0.8124	0.6811	1.0	.
C9B	C	1.1100(12)	0.8333(4)	0.6250(2)	1.0	.
C10B	C	1.1931(12)	0.9134(4)	0.5938(2)	1.0	.
H10B	H	1.3209	0.9395	0.6037	1.0	.
C11B	C	1.0961(12)	0.9587(4)	0.5474(2)	1.0	.
C12B	C	0.6480(12)	0.9100(4)	0.4644(2)	1.0	.
C13B	C	0.5255(13)	0.8667(4)	0.4451(2)	1.0	.
C14B	C	0.1713(13)	0.8692(5)	0.3667(2)	1.0	.
H14C	H	0.0563	0.8280	0.3595	1.0	.
H14D	H	0.0879	0.9183	0.3848	1.0	.
C15B	C	0.2687(14)	0.9223(5)	0.3146(3)	1.0	.
H15B	H	0.3474	0.8721	0.2959	1.0	.
C16B	C	0.4428(15)	0.9879(6)	0.3195(3)	1.0	.
H16D	H	0.4897	1.0240	0.2851	1.0	.
H16E	H	0.5759	0.9501	0.3348	1.0	.
H16F	H	0.3781	1.0331	0.3417	1.0	.
C17B	C	0.0851(14)	0.9756(6)	0.2812(3)	1.0	.
H17D	H	-0.0043	1.0223	0.2994	1.0	.
H17E	H	-0.0157	0.9295	0.2740	1.0	.
H17F	H	0.1559	1.0095	0.2486	1.0	.
C18D	C	0.591(6)	0.711(3)	0.3863(16)	1.0	2
H18E	H	0.7193	0.7510	0.3715	1.0	2
H18F	H	0.6486	0.6625	0.4154	1.0	2
C19D	C	0.531(3)	0.6575(13)	0.3444(7)	1.0	2
H19D	H	0.4553	0.7053	0.3168	1.0	2
C20D	C	0.751(4)	0.6129(16)	0.3199(10)	1.0	2
H20G	H	0.8543	0.6635	0.3058	1.0	2
H20H	H	0.7142	0.5818	0.2921	1.0	2
H20I	H	0.8265	0.5648	0.3463	1.0	2
C21D	C	0.370(3)	0.5814(11)	0.3666(6)	1.0	2
H21G	H	0.2313	0.6113	0.3821	1.0	2
H21H	H	0.4440	0.5332	0.3932	1.0	2
H21I	H	0.3311	0.5502	0.3390	1.0	2
C22D	C	0.202(6)	0.715(4)	0.4644(17)	1.0	2
H22E	H	0.0511	0.7494	0.4699	1.0	2
H22F	H	0.1758	0.6564	0.4511	1.0	2
C23D	C	0.297(2)	0.6809(10)	0.5172(5)	1.0	2
H23D	H	0.3015	0.7392	0.5330	1.0	2
C24D	C	0.155(3)	0.6131(10)	0.5532(5)	1.0	2
H24G	H	-0.0017	0.6422	0.5563	1.0	2
H24H	H	0.2173	0.5989	0.5872	1.0	2
H24I	H	0.1561	0.5533	0.5399	1.0	2
C25D	C	0.545(3)	0.6359(10)	0.5111(6)	1.0	2
H25G	H	0.6371	0.6816	0.4870	1.0	2
H25H	H	0.5456	0.5763	0.4976	1.0	2
H25I	H	0.6102	0.6214	0.5449	1.0	2
