data_x13441_config-1
loop_
 _symmetry_equiv_pos_as_xyz
'x, y, z'
'-x, -y, -z'

_cell_length_a	7.8372(2)
_cell_length_b	10.8273(3)
_cell_length_c	12.2376(4)
_cell_angle_alpha	69.940(2)
_cell_angle_beta	84.785(2)
_cell_angle_gamma	73.608(2)
loop_
 _atom_site_label
 _atom_site_type_symbol
 _atom_site_fract_x
 _atom_site_fract_y
 _atom_site_fract_z
 _atom_site_occupancy
 _atom_site_disorder_group
Si1	Si	0.58860(9)	0.17809(7)	0.18651(6)	1.0	.
C1	C	0.5231(3)	0.4275(2)	0.4202(2)	1.0	.
C2	C	0.3852(3)	0.4179(2)	0.5027(2)	1.0	.
C3	C	0.2648(3)	0.3405(2)	0.5062(2)	1.0	.
H3	H	0.2806	0.2912	0.4534	1.0	.
C4	C	0.1251(3)	0.3342(2)	0.5838(2)	1.0	.
C5	C	0.0000(3)	0.2581(2)	0.5844(2)	1.0	.
C6	C	-0.1352(4)	0.2574(3)	0.6623(2)	1.0	.
H6	H	-0.2166	0.2064	0.6636	1.0	.
C7	C	-0.1587(4)	0.3305(3)	0.7418(2)	1.0	.
H7	H	-0.2559	0.3276	0.7942	1.0	.
C8	C	-0.0462(4)	0.4046(3)	0.7452(2)	1.0	.
C9	C	0.1019(3)	0.4069(2)	0.6664(2)	1.0	.
C10	C	0.2223(3)	0.4810(3)	0.6641(2)	1.0	.
H10	H	0.2092	0.5271	0.7191	1.0	.
C11	C	0.3614(3)	0.4904(2)	0.5843(2)	1.0	.
C12	C	0.5491(3)	0.3529(3)	0.3409(2)	1.0	.
C13	C	0.5704(3)	0.2867(3)	0.2768(2)	1.0	.
C14	C	0.5801(4)	0.0077(3)	0.2839(3)	1.0	.
H14	H	0.6918	-0.0480	0.3294	1.0	.
C15	C	0.4778(4)	-0.0742(3)	0.2507(3)	1.0	.
H15A	H	0.4118	-0.0313	0.1759	1.0	.
H15B	H	0.5300	-0.1741	0.2726	1.0	.
C16	C	0.4102(4)	-0.0166(3)	0.3464(3)	1.0	.
H16A	H	0.4208	-0.0811	0.4272	1.0	.
H16B	H	0.3026	0.0617	0.3305	1.0	.
C17	C	0.4016(3)	0.2558(3)	0.0808(2)	1.0	.
H17	H	0.2800	0.2644	0.1153	1.0	.
C18	C	0.4216(4)	0.2314(3)	-0.0342(3)	1.0	.
H18A	H	0.5368	0.1737	-0.0505	1.0	.
H18B	H	0.3162	0.2223	-0.0665	1.0	.
C19	C	0.4176(5)	0.3685(3)	-0.0309(3)	1.0	.
H19A	H	0.3097	0.4441	-0.0610	1.0	.
H19B	H	0.5304	0.3955	-0.0450	1.0	.
C20	C	0.8093(9)	0.1455(8)	0.1209(9)	1.0	1
H20	H	0.8241	0.0943	0.0648	1.0	1
C21	C	0.9706(8)	0.1134(7)	0.1944(7)	1.0	1
H21A	H	0.9508	0.1169	0.2745	1.0	1
H21B	H	1.0774	0.0429	0.1848	1.0	1
C22	C	0.9191(7)	0.2430(6)	0.0970(5)	1.0	1
H22A	H	0.9945	0.2538	0.0268	1.0	1
H22B	H	0.8680	0.3277	0.1163	1.0	1
C23	C	0.0172(4)	0.1828(3)	0.4990(3)	1.0	.
H23A	H	-0.0765	0.1354	0.5133	1.0	.
H23B	H	0.1339	0.1161	0.5086	1.0	.
H23C	H	0.0054	0.2480	0.4195	1.0	.
C24	C	-0.0791(4)	0.4878(3)	0.8248(3)	1.0	.
H24A	H	-0.1937	0.4853	0.8637	1.0	.
H24B	H	-0.0812	0.5825	0.7795	1.0	.
H24C	H	0.0160	0.4501	0.8833	1.0	.
