data_x15385_config-0
loop_
 _symmetry_equiv_pos_as_xyz
'x, y, z'
'-x+1/2, y+1/2, -z+1/2'
'-x, -y, -z'
'x-1/2, -y-1/2, z-1/2'

_cell_length_a	15.2032(3)
_cell_length_b	9.6216(2)
_cell_length_c	17.3766(3)
_cell_angle_alpha	90
_cell_angle_beta	113.243(1)
_cell_angle_gamma	90
loop_
 _atom_site_label
 _atom_site_type_symbol
 _atom_site_fract_x
 _atom_site_fract_y
 _atom_site_fract_z
 _atom_site_occupancy
 _atom_site_disorder_group
Si1	Si	0.46785(3)	0.54970(4)	0.15280(2)	1.0	.
C1	C	0.4796(1)	0.50706(15)	0.41278(8)	1.0	.
C2	C	0.45736(10)	0.38464(15)	0.44623(8)	1.0	.
C3	C	0.41388(10)	0.26965(15)	0.39544(8)	1.0	.
H3	H	0.3991	0.2745	0.3370	1.0	.
C4	C	0.39206(10)	0.14941(15)	0.42822(8)	1.0	.
C5	C	0.34582(10)	0.03349(16)	0.37691(9)	1.0	.
H5	H	0.3286	0.0382	0.3181	1.0	.
C6	C	0.3260(1)	-0.08402(16)	0.41104(9)	1.0	.
C7	C	0.35109(10)	-0.09296(16)	0.50039(9)	1.0	.
C8	C	0.39417(10)	0.01652(16)	0.55059(9)	1.0	.
H8	H	0.4103	0.0097	0.6091	1.0	.
C9	C	0.41562(10)	0.14133(15)	0.51722(9)	1.0	.
C10	C	0.45782(10)	0.25371(15)	0.56739(9)	1.0	.
H10	H	0.4731	0.2474	0.6258	1.0	.
C11	C	0.47899(10)	0.37732(15)	0.53511(8)	1.0	.
C12	C	0.46508(10)	0.51390(15)	0.32636(9)	1.0	.
C13	C	0.46052(11)	0.52394(15)	0.25562(9)	1.0	.
C14	C	0.58933(11)	0.62161(17)	0.17090(9)	1.0	.
H14A	H	0.6355	0.5435	0.1875	1.0	.
H14B	H	0.5871	0.6572	0.1167	1.0	.
C15	C	0.62958(11)	0.73787(17)	0.23643(10)	1.0	.
H15	H	0.5745	0.7882	0.2414	1.0	.
C16	C	0.69144(12)	0.67797(19)	0.32196(10)	1.0	.
H16A	H	0.7484	0.6342	0.3193	1.0	.
H16B	H	0.6547	0.6084	0.3380	1.0	.
H16C	H	0.7111	0.7528	0.3636	1.0	.
C17	C	0.68776(14)	0.8420(2)	0.20978(12)	1.0	.
H17A	H	0.7125	0.9146	0.2525	1.0	.
H17B	H	0.6468	0.8842	0.1563	1.0	.
H17C	H	0.7414	0.7941	0.2034	1.0	.
C18	C	0.37124(11)	0.67252(16)	0.08695(9)	1.0	.
H18A	H	0.3685	0.6679	0.0291	1.0	.
H18B	H	0.3096	0.6360	0.0851	1.0	.
C19	C	0.37663(11)	0.82681(16)	0.11127(9)	1.0	.
H19	H	0.4412	0.8627	0.1187	1.0	.
C20	C	0.36370(12)	0.84908(17)	0.1928(1)	1.0	.
H20A	H	0.3005	0.8152	0.1866	1.0	.
H20B	H	0.3689	0.9484	0.2063	1.0	.
H20C	H	0.4134	0.7980	0.2380	1.0	.
C21	C	0.30106(12)	0.91155(18)	0.04212(10)	1.0	.
H21A	H	0.2374	0.8739	0.0312	1.0	.
H21B	H	0.3133	0.9063	-0.0091	1.0	.
H21C	H	0.3041	1.0087	0.0599	1.0	.
C22	C	0.44860(11)	0.38152(16)	0.09384(9)	1.0	.
H22A	H	0.3878	0.3410	0.0917	1.0	.
H22B	H	0.4393	0.4037	0.0355	1.0	.
C23	C	0.52577(12)	0.26782(17)	0.1257(1)	1.0	.
H23	H	0.5891	0.3112	0.1355	1.0	.
C24	C	0.50692(13)	0.15433(18)	0.05997(10)	1.0	.
H24A	H	0.5557	0.0817	0.0817	1.0	.
H24B	H	0.5095	0.1943	0.0090	1.0	.
H24C	H	0.4434	0.1140	0.0470	1.0	.
C25	C	0.53163(15)	0.20494(19)	0.20809(10)	1.0	.
H25A	H	0.4691	0.1668	0.2008	1.0	.
H25B	H	0.5501	0.2771	0.2514	1.0	.
H25C	H	0.5795	0.1305	0.2250	1.0	.
C26	C	0.27873(11)	-0.20048(16)	0.35878(9)	1.0	.
N1	N	0.24086(10)	-0.29303(15)	0.31787(8)	1.0	.
C27	C	0.33117(11)	-0.21861(17)	0.53652(9)	1.0	.
N2	N	0.31681(11)	-0.31564(16)	0.56714(9)	1.0	.
