data_k05342_config-1
loop_
 _symmetry_equiv_pos_as_xyz
'x, y, z'
'-x, -y, -z'

_cell_length_a	7.5766(4)
_cell_length_b	8.1796(5)
_cell_length_c	16.1503(10)
_cell_angle_alpha	100.846(3)
_cell_angle_beta	92.621(3)
_cell_angle_gamma	98.790(2)
loop_
 _atom_site_label
 _atom_site_type_symbol
 _atom_site_fract_x
 _atom_site_fract_y
 _atom_site_fract_z
 _atom_site_occupancy
 _atom_site_disorder_group
Si1	Si	0.29358(11)	0.26805(12)	0.17600(5)	1.0	.
C1	C	0.0602(3)	0.4478(3)	0.41930(15)	1.0	.
C2	C	0.1034(3)	0.6188(3)	0.45966(16)	1.0	.
C3	C	0.2025(3)	0.7411(3)	0.42098(16)	1.0	.
H3	H	0.2438	0.7119	0.3663	1.0	1
C4	C	0.2389(5)	0.9170(7)	0.4700(3)	1.0	1
S5	S	0.3561(3)	1.0780(3)	0.42668(19)	1.0	1
C6	C	0.3269(12)	1.2109(8)	0.5213(6)	1.0	1
C7	C	0.2406(14)	1.1327(13)	0.5771(9)	1.0	1
H7	H	0.2200	1.1935	0.6310	1.0	1
C8	C	0.1811(8)	0.9578(8)	0.5535(3)	1.0	1
F1	F	0.3991(6)	1.3730(5)	0.5313(4)	1.0	1
C9	C	0.0911(3)	0.8432(3)	0.58415(16)	1.0	.
H9	H	0.0518	0.8743	0.6391	1.0	1
C10	C	0.0443(3)	0.6717(3)	0.54268(16)	1.0	.
C11	C	0.1278(3)	0.3931(3)	0.33886(16)	1.0	.
C12	C	0.1887(4)	0.3438(4)	0.27288(17)	1.0	.
C13	C	0.2264(13)	0.0310(8)	0.1425(5)	1.0	1
H13	H	0.1179	0.0218	0.1032	1.0	1
C14	C	0.154(2)	-0.0728(19)	0.2051(8)	1.0	1
H14A	H	0.0653	-0.0171	0.2369	1.0	1
H14B	H	0.2524	-0.0834	0.2443	1.0	1
H14C	H	0.0974	-0.1852	0.1748	1.0	1
C15	C	0.3485(15)	-0.0599(16)	0.0849(7)	1.0	1
H15A	H	0.4666	0.0109	0.0895	1.0	1
H15B	H	0.2969	-0.0824	0.0264	1.0	1
H15C	H	0.3610	-0.1668	0.1018	1.0	1
C16	C	0.1733(17)	0.355(2)	0.0933(7)	1.0	1
H16	H	0.1822	0.4803	0.1115	1.0	1
C17	C	-0.0207(15)	0.2737(14)	0.0770(8)	1.0	1
H17A	H	-0.0858	0.3112	0.1263	1.0	1
H17B	H	-0.0291	0.1507	0.0670	1.0	1
H17C	H	-0.0733	0.3062	0.0272	1.0	1
C18	C	0.275(2)	0.315(4)	0.0136(10)	1.0	1
H18A	H	0.4008	0.3678	0.0257	1.0	1
H18B	H	0.2211	0.3580	-0.0324	1.0	1
H18C	H	0.2678	0.1921	-0.0032	1.0	1
C19	C	0.5421(9)	0.3412(13)	0.1886(8)	1.0	1
H19	H	0.5966	0.2944	0.1358	1.0	1
C20	C	0.578(2)	0.5315(14)	0.2040(10)	1.0	1
H20A	H	0.5220	0.5698	0.1568	1.0	1
H20B	H	0.7074	0.5711	0.2087	1.0	1
H20C	H	0.5276	0.5772	0.2566	1.0	1
C21	C	0.6174(19)	0.2735(15)	0.2632(9)	1.0	1
H21A	H	0.5886	0.1500	0.2514	1.0	1
H21B	H	0.5638	0.3191	0.3148	1.0	1
H21C	H	0.7477	0.3082	0.2707	1.0	1
