data_k13043c_config-2
loop_
 _symmetry_equiv_pos_as_xyz
'x, y, z'
'-x, -y, -z'

_cell_length_a	6.2389(1)
_cell_length_b	8.4594(2)
_cell_length_c	15.3638(4)
_cell_angle_alpha	78.969(1)
_cell_angle_beta	86.039(1)
_cell_angle_gamma	82.599(1)
loop_
 _atom_site_label
 _atom_site_type_symbol
 _atom_site_fract_x
 _atom_site_fract_y
 _atom_site_fract_z
 _atom_site_occupancy
 _atom_site_disorder_group
Si1	Si	0.90306(6)	0.43249(4)	0.84277(2)	1.0	.
C1	C	0.6042(2)	0.49354(15)	0.57995(8)	1.0	.
C2	C	0.4022(2)	0.58955(15)	0.56497(8)	1.0	.
C3	C	0.3050(2)	0.68371(16)	0.62781(8)	1.0	.
C4'	C	0.1076(2)	0.77197(16)	0.61233(9)	1.0	2
C5'	C	-0.0216(19)	0.8763(14)	0.6675(7)	1.0	2
H5'	H	0.0216	0.8963	0.7221	1.0	2
F1'	F	-0.3654(5)	1.0388(4)	0.6636(2)	1.0	2
C6'	C	-0.2046(14)	0.9380(14)	0.6309(6)	1.0	2
S7'	S	-0.2539(8)	0.8886(7)	0.5281(3)	1.0	2
C8'	C	-0.0055(2)	0.77101(15)	0.53429(9)	1.0	2
C9	C	0.0881(2)	0.68576(15)	0.47142(8)	1.0	.
C10	C	0.2945(2)	0.59447(15)	0.48437(8)	1.0	.
C11	C	0.7047(2)	0.48196(15)	0.66227(9)	1.0	.
C12	C	0.7856(2)	0.46835(16)	0.73283(9)	1.0	.
C13	C	0.8038(2)	0.24525(16)	0.91023(9)	1.0	.
H13A	H	0.8459	0.2324	0.9724	1.0	.
H13B	H	0.6439	0.2556	0.9102	1.0	.
C14	C	0.9006(2)	0.09488(17)	0.87158(10)	1.0	.
H14A	H	0.8509	-0.0030	0.9097	1.0	.
H14B	H	0.8449	0.1037	0.8118	1.0	.
C15	C	1.1489(3)	0.07346(18)	0.86428(11)	1.0	.
H15A	H	1.2040	0.0668	0.9239	1.0	.
H15B	H	1.1986	-0.0309	0.8450	1.0	.
C16	C	1.2482(2)	0.2087(2)	0.80011(10)	1.0	.
H16A	H	1.1908	0.2179	0.7406	1.0	.
H16B	H	1.4068	0.1794	0.7950	1.0	.
C17	C	1.2010(2)	0.37485(18)	0.82951(9)	1.0	.
H17A	H	1.2645	0.4584	0.7846	1.0	.
H17B	H	1.2688	0.3694	0.8866	1.0	.
C18	C	0.8293(2)	0.61695(17)	0.89436(9)	1.0	.
H18A	H	0.8589	0.5873	0.9583	1.0	.
H18B	H	0.9247	0.6996	0.8670	1.0	.
C19	C	0.5938(3)	0.6931(2)	0.88524(12)	1.0	.
H19A	H	0.5661	0.7328	0.8223	1.0	.
H19B	H	0.5674	0.7838	0.9174	1.0	.
H19C	H	0.4973	0.6115	0.9101	1.0	.
