data_k13047_config-2
loop_
 _symmetry_equiv_pos_as_xyz
'x, y, z'
'-x, -y, -z'

_cell_length_a	7.2274(3)
_cell_length_b	7.2848(3)
_cell_length_c	15.3896(7)
_cell_angle_alpha	89.633(2)
_cell_angle_beta	89.354(2)
_cell_angle_gamma	71.732(2)
loop_
 _atom_site_label
 _atom_site_type_symbol
 _atom_site_fract_x
 _atom_site_fract_y
 _atom_site_fract_z
 _atom_site_occupancy
 _atom_site_disorder_group
C1	C	0.5832(3)	0.5181(3)	0.58096(15)	1.0	.
C2	C	0.3819(3)	0.6131(3)	0.56789(15)	1.0	.
C3	C	0.2631(3)	0.7292(3)	0.63356(15)	1.0	.
C4'	C	0.0688(3)	0.8156(3)	0.61901(15)	1.0	2
C5'	C	-0.074(2)	0.936(3)	0.6768(12)	1.0	2
H5'	H	-0.0468	0.9724	0.7332	1.0	2
F1'	F	-0.4167(8)	1.0979(10)	0.6775(4)	1.0	2
C6'	C	-0.2477(14)	0.990(2)	0.6421(7)	1.0	2
S7'	S	-0.2646(8)	0.9040(14)	0.5368(6)	1.0	2
C8'	C	-0.0180(3)	0.7893(3)	0.53868(15)	1.0	2
C9	C	0.0938(3)	0.6811(3)	0.47383(15)	1.0	.
C10	C	0.2970(3)	0.5920(3)	0.48560(15)	1.0	.
C11	C	0.6664(3)	0.5311(3)	0.66414(15)	1.0	.
C12	C	0.7360(3)	0.5362(3)	0.73457(16)	1.0	.
C13	C	1.1032(4)	0.5045(5)	0.83453(19)	1.0	.
H13A	H	1.1154	0.6310	0.8166	1.0	.
H13B	H	1.1623	0.4736	0.8927	1.0	.
C14	C	1.2180(5)	0.3524(6)	0.7712(2)	1.0	.
H14A	H	1.2113	0.2255	0.7894	1.0	.
H14B	H	1.3543	0.3503	0.7701	1.0	.
H14C	H	1.1630	0.3829	0.7130	1.0	.
C15'	C	0.7008(4)	0.7528(5)	0.90201(19)	1.0	2
H15C	H	0.6672	0.7113	0.9598	1.0	2
H15D	H	0.7950	0.8238	0.9123	1.0	2
C16'	C	0.534(2)	0.887(2)	0.8723(10)	1.0	2
H16D	H	0.5296	0.8788	0.8088	1.0	2
H16E	H	0.5346	1.0170	0.8886	1.0	2
H16F	H	0.4202	0.8621	0.8981	1.0	2
Si1	Si	0.83818(10)	0.52842(11)	0.84379(4)	1.0	.
C17'	C	0.815(3)	0.324(2)	0.9105(11)	1.0	2
H17'	H	0.9218	0.2526	0.9448	1.0	2
C18'	C	0.6588(15)	0.2777(14)	0.9119(7)	1.0	2
H18C	H	0.5505	0.3482	0.8780	1.0	2
H18D	H	0.6510	0.1722	0.9468	1.0	2
