data_k13066_config-2
loop_
 _symmetry_equiv_pos_as_xyz
'x, y, z'
'-x, -y, -z'

_cell_length_a	6.9958(2)
_cell_length_b	7.2915(2)
_cell_length_c	17.0802(5)
_cell_angle_alpha	92.9074(11)
_cell_angle_beta	91.3134(11)
_cell_angle_gamma	105.6823(12)
loop_
 _atom_site_label
 _atom_site_type_symbol
 _atom_site_fract_x
 _atom_site_fract_y
 _atom_site_fract_z
 _atom_site_occupancy
 _atom_site_disorder_group
Si1	Si	-0.32138(9)	0.07373(9)	0.81188(3)	1.0	.
C1	C	-0.0830(3)	0.0272(3)	0.57302(11)	1.0	.
C2	C	0.1190(3)	0.1211(3)	0.56134(11)	1.0	.
C3	C	0.2385(3)	0.2459(3)	0.62080(11)	1.0	.
C4'	C	0.4348(3)	0.3311(3)	0.60806(11)	1.0	2
C5'	C	0.572(3)	0.452(3)	0.6615(13)	1.0	2
H5'	H	0.5440	0.4927	0.7126	1.0	2
F1'	F	0.9225(11)	0.6177(11)	0.6620(5)	1.0	2
C6'	C	0.749(2)	0.500(3)	0.6288(9)	1.0	2
S7'	S	0.764(2)	0.409(2)	0.5333(10)	1.0	2
C8'	C	0.5224(3)	0.2955(3)	0.53584(12)	1.0	2
C9	C	0.4093(3)	0.1794(3)	0.47714(11)	1.0	.
C10	C	0.2041(3)	0.0905(3)	0.48735(11)	1.0	.
C11	C	-0.1646(3)	0.0500(3)	0.64810(12)	1.0	.
C12	C	-0.2297(3)	0.0659(3)	0.71200(12)	1.0	.
C13	C	-0.5960(3)	0.0411(3)	0.80575(13)	1.0	.
H13A	H	-0.6487	0.0173	0.8587	1.0	.
H13B	H	-0.6210	0.1615	0.7899	1.0	.
C14	C	-0.7109(4)	-0.1214(4)	0.74865(16)	1.0	.
H14A	H	-0.6634	-0.0974	0.6956	1.0	.
H14B	H	-0.8528	-0.1289	0.7493	1.0	.
H14C	H	-0.6901	-0.2421	0.7645	1.0	.
C15'	C	-0.223(3)	0.317(2)	0.8616(18)	1.0	2
H15C	H	-0.2978	0.4033	0.8419	1.0	2
H15D	H	-0.2402	0.3097	0.9188	1.0	2
C16'	C	-0.002(2)	0.396(3)	0.8457(11)	1.0	2
H16D	H	0.0460	0.5265	0.8692	1.0	2
H16E	H	0.0156	0.3973	0.7889	1.0	2
H16F	H	0.0733	0.3155	0.8686	1.0	2
C17'	C	-0.230(5)	-0.105(3)	0.8655(16)	1.0	2
H17C	H	-0.2767	-0.2332	0.8382	1.0	2
H17D	H	-0.0833	-0.0681	0.8698	1.0	2
C18'	C	-0.319(8)	-0.105(5)	0.948(2)	1.0	2
H18C	H	-0.2476	0.0120	0.9795	1.0	2
H18D	H	-0.4610	-0.1065	0.9428	1.0	2
C19'	C	-0.301(3)	-0.276(2)	0.9882(8)	1.0	2
H19D	H	-0.3714	-0.2838	1.0375	1.0	2
H19E	H	-0.1607	-0.2657	0.9994	1.0	2
H19F	H	-0.3600	-0.3908	0.9543	1.0	2
