data_k14065s_config-1
loop_
 _symmetry_equiv_pos_as_xyz
'x, y, z'
'-x, y+1/2, -z+1/2'
'-x, -y, -z'
'x, -y-1/2, z-1/2'

_cell_length_a	7.3261(1)
_cell_length_b	33.4045(5)
_cell_length_c	7.2059(1)
_cell_angle_alpha	90
_cell_angle_beta	107.5154(6)
_cell_angle_gamma	90
loop_
 _atom_site_label
 _atom_site_type_symbol
 _atom_site_fract_x
 _atom_site_fract_y
 _atom_site_fract_z
 _atom_site_occupancy
 _atom_site_disorder_group
Si1	Si	0.52721(13)	0.65875(3)	0.15717(15)	1.0	.
C1	C	0.5187(4)	0.53727(8)	0.4166(4)	1.0	.
C2	C	0.6113(4)	0.53100(8)	0.6156(4)	1.0	.
C3	C	0.7275(4)	0.56119(8)	0.7338(4)	1.0	.
H3	H	0.7455	0.5861	0.6778	1.0	1
C4	C	0.8129(4)	0.55446(8)	0.9271(4)	1.0	1
S5	S	0.9623(3)	0.58734(5)	1.0967(2)	1.0	1
C6	C	0.9759(9)	0.55169(16)	1.2779(6)	1.0	1
F1	F	1.0829(5)	0.56226(9)	1.4593(4)	1.0	1
C7	C	0.880(2)	0.5169(4)	1.2190(15)	1.0	1
H7	H	0.8766	0.4952	1.3028	1.0	1
C8	C	0.7870(4)	0.51731(8)	1.0158(4)	1.0	1
C9	C	0.6798(4)	0.48769(9)	0.9051(4)	1.0	.
H9	H	0.6644	0.4630	0.9643	1.0	1
C10	C	0.5905(4)	0.49315(8)	0.7024(4)	1.0	.
C12	C	0.5318(4)	0.57596(9)	0.3315(4)	1.0	.
C13	C	0.5366(4)	0.60840(9)	0.2618(5)	1.0	.
C14	C	0.4969(5)	0.65400(10)	-0.1083(5)	1.0	.
H14A	H	0.4734	0.6810	-0.1679	1.0	.
H14B	H	0.6181	0.6439	-0.1250	1.0	.
C15	C	0.3352(6)	0.62644(12)	-0.2176(6)	1.0	.
H15A	H	0.3585	0.5994	-0.1622	1.0	.
H15B	H	0.3291	0.6256	-0.3552	1.0	.
H15C	H	0.2136	0.6366	-0.2057	1.0	.
C16	C	0.310(3)	0.6830(5)	0.2126(19)	1.0	1
H16A	H	0.2111	0.6621	0.2016	1.0	1
H16B	H	0.3508	0.6924	0.3491	1.0	1
C17	C	0.2197(14)	0.7174(3)	0.0841(19)	1.0	1
H17A	H	0.3132	0.7391	0.0996	1.0	1
H17B	H	0.1089	0.7271	0.1207	1.0	1
H17C	H	0.1779	0.7086	-0.0518	1.0	1
C18	C	0.750(3)	0.6856(6)	0.269(2)	1.0	1
H18	H	0.8392	0.6748	0.2001	1.0	1
C19	C	0.7486(9)	0.72823(17)	0.2319(10)	1.0	1
H19A	H	0.6829	0.7334	0.0940	1.0	1
H19B	H	0.6814	0.7421	0.3119	1.0	1
H19C	H	0.8805	0.7381	0.2647	1.0	1
C20	C	0.8534(13)	0.6761(3)	0.4873(14)	1.0	1
H20A	H	0.8523	0.6471	0.5083	1.0	1
H20B	H	0.9860	0.6855	0.5218	1.0	1
H20C	H	0.7869	0.6896	0.5690	1.0	1
