data_k14105u_config-1
loop_
 _symmetry_equiv_pos_as_xyz
'x, y, z'
'-x, -y, -z'

_cell_length_a	8.6194(2)
_cell_length_b	9.7775(2)
_cell_length_c	16.1957(4)
_cell_angle_alpha	99.8171(13)
_cell_angle_beta	91.9441(13)
_cell_angle_gamma	109.8281(12)
loop_
 _atom_site_label
 _atom_site_type_symbol
 _atom_site_fract_x
 _atom_site_fract_y
 _atom_site_fract_z
 _atom_site_occupancy
 _atom_site_disorder_group
Si1	Si	0.67689(8)	0.26529(7)	0.78656(4)	1.0	.
C1	C	0.5377(3)	0.4334(2)	0.56528(13)	1.0	.
C2	C	0.6671(3)	0.5373(2)	0.53348(14)	1.0	.
C3	C	0.8341(3)	0.5790(3)	0.56748(15)	1.0	.
H3	H	0.8606	0.5345	0.6111	1.0	1
C4	C	0.9570(3)	0.6833(3)	0.53729(16)	1.0	1
S5	S	1.1653(2)	0.7628(2)	0.57424(14)	1.0	1
C6	C	1.2027(7)	0.8835(7)	0.5032(4)	1.0	1
H6	H	1.3087	0.9544	0.5000	1.0	1
C7	C	1.0643(13)	0.8659(16)	0.4524(8)	1.0	1
H7	H	1.0629	0.9226	0.4104	1.0	1
C8	C	0.9200(3)	0.7498(3)	0.47075(15)	1.0	1
C9	C	0.7603(3)	0.7112(3)	0.43648(15)	1.0	.
H9	H	0.7369	0.7559	0.3922	1.0	1
C10	C	0.6298(3)	0.6049(2)	0.46669(14)	1.0	.
C11	C	0.5768(3)	0.3699(2)	0.63315(14)	1.0	.
C12	C	0.6147(3)	0.3232(2)	0.69222(14)	1.0	.
C13	C	0.5126(3)	0.2677(2)	0.86053(14)	1.0	.
H13	H	0.4944	0.3636	0.8615	1.0	.
C14	C	0.3447(3)	0.1443(3)	0.82837(16)	1.0	.
H14A	H	0.3096	0.1531	0.7713	1.0	.
H14B	H	0.3579	0.0467	0.8241	1.0	.
C15	C	0.2105(3)	0.1517(3)	0.88618(18)	1.0	.
H15A	H	0.1882	0.2445	0.8856	1.0	.
H15B	H	0.1067	0.0674	0.8649	1.0	.
C16	C	0.2623(3)	0.1468(3)	0.97533(17)	1.0	.
H16A	H	0.2744	0.0501	0.9767	1.0	.
H16B	H	0.1752	0.1563	1.0119	1.0	.
C17	C	0.4264(3)	0.2718(3)	1.00906(16)	1.0	.
H17A	H	0.4112	0.3685	1.0127	1.0	.
H17B	H	0.4601	0.2635	1.0665	1.0	.
C18	C	0.5625(3)	0.2655(3)	0.95226(15)	1.0	.
H18A	H	0.5866	0.1739	0.9541	1.0	.
H18B	H	0.6649	0.3511	0.9737	1.0	.
C19	C	0.6983(3)	0.0799(2)	0.75153(14)	1.0	.
H19	H	0.8018	0.1005	0.7223	1.0	.
C20	C	0.5608(3)	-0.0322(3)	0.68648(16)	1.0	.
H20A	H	0.4541	-0.0565	0.7118	1.0	.
H20B	H	0.5500	0.0134	0.6375	1.0	.
C21	C	0.5956(3)	-0.1748(3)	0.65640(16)	1.0	.
H21A	H	0.4996	-0.2469	0.6185	1.0	.
H21B	H	0.6936	-0.1530	0.6240	1.0	.
C22	C	0.6273(3)	-0.2423(3)	0.73059(16)	1.0	.
H22A	H	0.5250	-0.2740	0.7593	1.0	.
H22B	H	0.6559	-0.3311	0.7096	1.0	.
C23	C	0.7664(4)	-0.1329(3)	0.79276(16)	1.0	.
H23A	H	0.8707	-0.1069	0.7653	1.0	.
H23B	H	0.7820	-0.1788	0.8409	1.0	.
C24	C	0.7287(3)	0.0079(3)	0.82495(15)	1.0	.
H24A	H	0.8231	0.0792	0.8642	1.0	.
H24B	H	0.6294	-0.0169	0.8563	1.0	.
C25	C	0.8850(3)	0.4065(2)	0.83240(14)	1.0	.
H25	H	0.9167	0.3789	0.8855	1.0	.
C26	C	1.0216(3)	0.4079(3)	0.77394(17)	1.0	.
H26A	H	0.9884	0.4266	0.7190	1.0	.
H26B	H	1.0331	0.3093	0.7640	1.0	.
C27	C	1.1901(3)	0.5264(3)	0.8102(2)	1.0	.
H27A	H	1.2307	0.5011	0.8614	1.0	.
H27B	H	1.2715	0.5276	0.7684	1.0	.
C28	C	1.1763(3)	0.6800(3)	0.8322(2)	1.0	.
H28A	H	1.2847	0.7531	0.8584	1.0	.
H28B	H	1.1470	0.7098	0.7801	1.0	.
C29	C	1.0455(3)	0.6800(3)	0.89252(19)	1.0	.
H29A	H	1.0354	0.7793	0.9039	1.0	.
H29B	H	1.0800	0.6592	0.9466	1.0	.
C30	C	0.8771(3)	0.5634(3)	0.85597(17)	1.0	.
H30A	H	0.8376	0.5905	0.8052	1.0	.
H30B	H	0.7959	0.5631	0.8978	1.0	.
