data_k15056_config-1
loop_
 _symmetry_equiv_pos_as_xyz
'x, y, z'
'-x, -y, -z'

_cell_length_a	6.6825(2)
_cell_length_b	7.2546(2)
_cell_length_c	16.6845(5)
_cell_angle_alpha	97.8261(18)
_cell_angle_beta	94.7607(16)
_cell_angle_gamma	103.7577(16)
loop_
 _atom_site_label
 _atom_site_type_symbol
 _atom_site_fract_x
 _atom_site_fract_y
 _atom_site_fract_z
 _atom_site_occupancy
 _atom_site_disorder_group
Si1	Si	0.78888(8)	0.37921(7)	0.17776(3)	1.0	.
C1	C	0.5738(2)	0.4591(2)	0.42391(9)	1.0	.
C2	C	0.3687(3)	0.3656(2)	0.43521(9)	1.0	.
C3	C	0.2369(3)	0.2268(2)	0.37264(9)	1.0	.
H3	H	0.2859	0.1935	0.3222	1.0	1
C4	C	0.0392(3)	0.1414(2)	0.38539(10)	1.0	1
S5	S	-0.14871(9)	-0.03324(10)	0.31904(4)	1.0	1
C6	C	-0.3297(3)	-0.0330(3)	0.38836(12)	1.0	1
H6	H	-0.4679	-0.1114	0.3781	1.0	1
C7	C	-0.2534(7)	0.0893(9)	0.4576(4)	1.0	1
H7	H	-0.3332	0.1070	0.5012	1.0	1
C8	C	-0.0411(2)	0.1909(2)	0.46011(10)	1.0	1
C9	C	0.0849(2)	0.3213(2)	0.52227(10)	1.0	.
H9	H	0.0326	0.3524	0.5722	1.0	1
C10	C	0.2930(2)	0.4096(2)	0.51225(9)	1.0	.
C11	C	0.6449(2)	0.4224(2)	0.34608(9)	1.0	.
C12	C	0.7038(3)	0.3967(2)	0.2799(1)	1.0	.
C13	C	1.0785(3)	0.4312(3)	0.18788(11)	1.0	.
H13A	H	1.1208	0.3242	0.2098	1.0	.
H13B	H	1.1231	0.4333	0.1328	1.0	.
C14	C	1.1942(3)	0.6199(3)	0.24238(13)	1.0	.
H14A	H	1.1551	0.7276	0.2212	1.0	.
H14B	H	1.3441	0.6357	0.2429	1.0	.
H14C	H	1.1574	0.6173	0.2979	1.0	.
C15	C	0.6930(3)	0.5626(2)	0.12756(10)	1.0	.
H15A	H	0.5394	0.5229	0.1191	1.0	.
H15B	H	0.7345	0.6868	0.1651	1.0	.
C16	C	0.7718(3)	0.5943(3)	0.04537(11)	1.0	.
H16A	H	0.9233	0.6417	0.0533	1.0	.
H16B	H	0.7104	0.6890	0.0229	1.0	.
H16C	H	0.7321	0.4725	0.0075	1.0	.
C17	C	0.6752(3)	0.1309(3)	0.12002(11)	1.0	.
H17A	H	0.6923	0.1330	0.0617	1.0	.
H17B	H	0.7560	0.0443	0.1396	1.0	.
C18	C	0.4462(4)	0.0458(3)	0.12674(13)	1.0	.
H18A	H	0.4268	0.0412	0.1841	1.0	.
H18B	H	0.4019	-0.0847	0.0956	1.0	.
H18C	H	0.3631	0.1261	0.1049	1.0	.
