data_k15081_config-2
loop_
 _symmetry_equiv_pos_as_xyz
'x, y, z'
'-x, -y, -z'

_cell_length_a	8.5477(3)
_cell_length_b	11.7019(4)
_cell_length_c	15.5514(6)
_cell_angle_alpha	88.374(2)
_cell_angle_beta	89.433(2)
_cell_angle_gamma	89.988(2)
loop_
 _atom_site_label
 _atom_site_type_symbol
 _atom_site_fract_x
 _atom_site_fract_y
 _atom_site_fract_z
 _atom_site_occupancy
 _atom_site_disorder_group
Ge1	Ge	0.09495(2)	0.92024(2)	0.83833(2)	1.0	.
Ge2	Ge	0.42153(2)	0.55120(2)	0.15330(2)	1.0	.
C1	C	0.2238(2)	0.79918(15)	0.57207(11)	1.0	.
C2	C	0.3707(2)	0.74634(15)	0.55895(11)	1.0	.
C3	C	0.4861(2)	0.74572(15)	0.62432(11)	1.0	.
C4'	C	0.6244(2)	0.69070(15)	0.61071(11)	1.0	2
C5'	C	0.760(4)	0.685(5)	0.666(2)	1.0	2
H5'	H	0.7677	0.7204	0.7196	1.0	2
F1'	F	1.007(2)	0.587(2)	0.6658(15)	1.0	2
C6'	C	0.870(3)	0.621(4)	0.6303(19)	1.0	2
S7'	S	0.837(2)	0.571(2)	0.5272(13)	1.0	2
C8'	C	0.6567(2)	0.63205(15)	0.53244(12)	1.0	2
C9	C	0.5486(2)	0.63454(15)	0.46809(11)	1.0	.
C10	C	0.4035(2)	0.69223(15)	0.47894(11)	1.0	.
C11	C	0.2899(2)	0.69637(15)	0.41277(11)	1.0	.
C12	C	0.1430(2)	0.74999(15)	0.42573(11)	1.0	.
C13	C	0.0265(2)	0.75212(15)	0.36065(11)	1.0	.
C14'	C	-0.1125(2)	0.80562(16)	0.37590(12)	1.0	2
C15'	C	-0.238(4)	0.814(6)	0.315(2)	1.0	2
H15'	H	-0.2394	0.7810	0.2599	1.0	2
F2'	F	-0.491(2)	0.902(2)	0.3153(15)	1.0	2
C16'	C	-0.350(3)	0.875(3)	0.3497(16)	1.0	2
S17'	S	-0.322(2)	0.929(2)	0.4525(14)	1.0	2
C18'	C	-0.1450(2)	0.86138(15)	0.45535(12)	1.0	2
C19	C	-0.0353(2)	0.85887(15)	0.51891(12)	1.0	.
C20	C	0.1105(2)	0.80310(15)	0.50632(11)	1.0	.
C21	C	0.1876(2)	0.84519(16)	0.65422(11)	1.0	.
C22	C	0.1568(2)	0.87991(16)	0.72437(12)	1.0	.
C23	C	-0.0725(2)	1.03363(17)	0.82742(12)	1.0	.
H23A	H	-0.1291	1.0377	0.8831	1.0	.
H23B	H	-0.0255	1.1096	0.8145	1.0	.
C24	C	-0.1888(2)	1.00661(19)	0.75735(14)	1.0	.
H24A	H	-0.1342	1.0049	0.7017	1.0	.
H24B	H	-0.2702	1.0656	0.7552	1.0	.
H24C	H	-0.2369	0.9320	0.7701	1.0	.
C25	C	0.0194(2)	0.77820(17)	0.89420(12)	1.0	.
H25A	H	-0.0402	0.7344	0.8519	1.0	.
H25B	H	0.1105	0.7313	0.9120	1.0	.
C26	C	-0.0846(3)	0.79776(19)	0.97268(13)	1.0	.
H26A	H	-0.0291	0.8457	1.0131	1.0	.
H26B	H	-0.1101	0.7241	1.0009	1.0	.
H26C	H	-0.1812	0.8361	0.9545	1.0	.
C27	C	0.2798(2)	0.97737(16)	0.89659(12)	1.0	.
H27A	H	0.2897	1.0606	0.8844	1.0	.
H27B	H	0.2656	0.9657	0.9595	1.0	.
C28	C	0.4306(2)	0.91828(19)	0.86852(14)	1.0	.
H28A	H	0.4201	0.8355	0.8783	1.0	.
H28B	H	0.5183	0.9465	0.9021	1.0	.
H28C	H	0.4501	0.9350	0.8072	1.0	.
C29	C	0.3259(2)	0.64695(16)	0.33176(12)	1.0	.
C30	C	0.3595(2)	0.60673(16)	0.26341(12)	1.0	.
C31	C	0.2347(2)	0.50148(19)	0.09282(13)	1.0	.
H31A	H	0.2477	0.5215	0.0309	1.0	.
H31B	H	0.2272	0.4172	0.0985	1.0	.
C32	C	0.0821(3)	0.5527(2)	0.12443(16)	1.0	.
H32A	H	0.0653	0.5307	0.1851	1.0	.
H32B	H	-0.0047	0.5242	0.0903	1.0	.
H32C	H	0.0871	0.6362	0.1183	1.0	.
C33	C	0.5213(2)	0.67967(16)	0.09179(12)	1.0	.
H33A	H	0.6168	0.7015	0.1228	1.0	.
H33B	H	0.5535	0.6554	0.0338	1.0	.
C34	C	0.4148(3)	0.78349(18)	0.08271(16)	1.0	.
H34A	H	0.3232	0.7639	0.0487	1.0	.
H34B	H	0.4720	0.8464	0.0537	1.0	.
H34C	H	0.3806	0.8070	0.1399	1.0	.
C35	C	0.5698(2)	0.42597(17)	0.17106(13)	1.0	.
H35A	H	0.5123	0.3577	0.1933	1.0	.
H35B	H	0.6172	0.4068	0.1149	1.0	.
C36	C	0.7006(2)	0.45349(19)	0.23367(15)	1.0	.
H36A	H	0.7576	0.5214	0.2124	1.0	.
H36B	H	0.7726	0.3885	0.2383	1.0	.
H36C	H	0.6552	0.4682	0.2904	1.0	.
