data_x06178_config-2
loop_
 _symmetry_equiv_pos_as_xyz
'x, y, z'
'-x, -y, -z'

_cell_length_a	7.5396(6)
_cell_length_b	8.2833(6)
_cell_length_c	16.0480(12)
_cell_angle_alpha	100.793(3)
_cell_angle_beta	92.519(3)
_cell_angle_gamma	98.295(3)
loop_
 _atom_site_label
 _atom_site_type_symbol
 _atom_site_fract_x
 _atom_site_fract_y
 _atom_site_fract_z
 _atom_site_occupancy
 _atom_site_disorder_group
Si1	Si	0.20420(13)	0.73000(12)	0.32403(5)	1.0	.
C1	C	0.4399(3)	0.5511(3)	0.08112(15)	1.0	.
C2	C	0.3979(3)	0.3837(3)	0.04054(15)	1.0	.
C3	C	0.2988(3)	0.2641(3)	0.07999(16)	1.0	.
C4'	C	0.2608(3)	0.1023(3)	0.03913(17)	1.0	2
C5'	C	0.1667(19)	-0.0317(14)	0.0693(9)	1.0	2
H5'	H	0.1236	-0.0226	0.1245	1.0	2
O1'	O	0.0500(12)	-0.4603(11)	-0.0380(7)	1.0	2
C22'	C	0.0535(17)	-0.3335(14)	0.0153(9)	1.0	2
C6'	C	0.1443(13)	-0.1758(9)	0.0106(5)	1.0	2
S7'	S	0.2438(5)	-0.1564(2)	-0.0833(2)	1.0	2
C8'	C	0.3162(3)	0.0511(3)	-0.04461(17)	1.0	2
C9	C	0.4133(3)	0.1641(3)	-0.08406(16)	1.0	.
C10	C	0.4571(3)	0.3314(3)	-0.04252(15)	1.0	.
C11	C	0.3716(3)	0.6052(3)	0.16111(16)	1.0	.
C12	C	0.3079(4)	0.6535(4)	0.22674(18)	1.0	.
C13'	C	0.2749(18)	0.9684(16)	0.3511(10)	1.0	2
H13'	H	0.1966	0.9861	0.3027	1.0	2
C14'	C	0.430(2)	1.056(2)	0.3244(11)	1.0	2
H14D	H	0.4837	0.9798	0.2817	1.0	2
H14E	H	0.5175	1.0996	0.3734	1.0	2
H14F	H	0.3979	1.1477	0.2996	1.0	2
C15'	C	0.173(2)	1.060(2)	0.4158(11)	1.0	2
H15D	H	0.0684	0.9846	0.4277	1.0	2
H15E	H	0.1317	1.1526	0.3943	1.0	2
H15F	H	0.2501	1.1034	0.4682	1.0	2
C16'	C	0.325(2)	0.643(3)	0.4136(12)	1.0	2
H16'	H	0.3101	0.5183	0.4017	1.0	2
C17'	C	0.5201(15)	0.7236(19)	0.4238(8)	1.0	2
H17D	H	0.5808	0.6801	0.3735	1.0	2
H17E	H	0.5788	0.6987	0.4745	1.0	2
H17F	H	0.5269	0.8443	0.4297	1.0	2
C18'	C	0.234(4)	0.713(6)	0.4949(19)	1.0	2
H18D	H	0.1065	0.6655	0.4892	1.0	2
H18E	H	0.2463	0.8346	0.5020	1.0	2
H18F	H	0.2928	0.6844	0.5446	1.0	2
C19'	C	-0.033(2)	0.5868(19)	0.3118(8)	1.0	2
H19'	H	-0.0947	0.6223	0.3646	1.0	2
C20'	C	-0.0212(19)	0.4042(18)	0.3055(9)	1.0	2
H20D	H	0.0553	0.3901	0.3537	1.0	2
H20E	H	0.0305	0.3623	0.2522	1.0	2
H20F	H	-0.1418	0.3421	0.3064	1.0	2
C21'	C	-0.1531(15)	0.605(2)	0.2384(7)	1.0	2
H21D	H	-0.1638	0.7226	0.2421	1.0	2
H21E	H	-0.2724	0.5408	0.2400	1.0	2
H21F	H	-0.1018	0.5633	0.1850	1.0	2
