data_x10151_config-2
loop_
 _symmetry_equiv_pos_as_xyz
'x, y, z'
'-x, -y, -z'

_cell_length_a	10.7005(3)
_cell_length_b	16.6855(4)
_cell_length_c	17.7387(4)
_cell_angle_alpha	97.472(1)
_cell_angle_beta	104.923(1)
_cell_angle_gamma	102.925(1)
loop_
 _atom_site_label
 _atom_site_type_symbol
 _atom_site_fract_x
 _atom_site_fract_y
 _atom_site_fract_z
 _atom_site_occupancy
 _atom_site_disorder_group
Si1	Si	0.60146(4)	0.17478(3)	0.11074(2)	1.0	.
O1	O	1.40333(12)	0.57721(8)	0.42983(7)	1.0	.
N1	N	1.46950(14)	0.60865(9)	0.56400(9)	1.0	.
C1	C	0.70823(16)	0.23779(10)	0.37591(9)	1.0	.
Si2	Si	0.90017(4)	0.34899(3)	0.80983(2)	1.0	.
O2	O	0.07764(12)	-0.11651(8)	0.38792(7)	1.0	.
N2	N	0.09917(14)	-0.08381(9)	0.51860(9)	1.0	.
C2	C	0.82793(15)	0.29996(10)	0.42001(9)	1.0	.
C3	C	0.91503(16)	0.34337(10)	0.38167(9)	1.0	.
H3	H	0.8923	0.3327	0.3252	1.0	.
C4	C	1.03217(16)	0.40077(10)	0.42662(10)	1.0	.
S5	S	1.15518(4)	0.45893(3)	0.39193(2)	1.0	.
C6	C	1.25352(16)	0.50646(10)	0.49000(10)	1.0	.
C7	C	1.19578(16)	0.48189(10)	0.54640(11)	1.0	.
H7	H	1.2350	0.5031	0.6020	1.0	.
C8	C	1.06742(16)	0.41959(10)	0.51147(9)	1.0	.
C9	C	0.98351(16)	0.37901(10)	0.54983(9)	1.0	.
H9	H	1.0066	0.3922	0.6063	1.0	.
C10	C	0.86299(16)	0.31770(10)	0.50583(9)	1.0	.
C11	C	0.77787(16)	0.27332(10)	0.54428(9)	1.0	.
C12	C	0.66094(16)	0.20895(10)	0.50027(9)	1.0	.
C13	C	0.57690(16)	0.16281(10)	0.53837(9)	1.0	.
H13	H	0.5991	0.1747	0.5948	1.0	.
C14	C	0.46349(16)	0.10097(10)	0.49461(9)	1.0	.
C15	C	0.36427(16)	0.04825(10)	0.52278(11)	1.0	.
H15	H	0.3678	0.0516	0.5772	1.0	.
C16	C	0.26494(16)	-0.00694(10)	0.46077(9)	1.0	.
S17	S	0.28597(4)	0.00033(3)	0.36671(2)	1.0	.
C18	C	0.43156(16)	0.08222(10)	0.40971(9)	1.0	.
C19	C	0.51044(16)	0.12515(10)	0.37049(9)	1.0	.
H19	H	0.4877	0.1113	0.3141	1.0	.
C20	C	0.62637(15)	0.19043(10)	0.41452(9)	1.0	.
C21	C	0.67060(16)	0.22241(10)	0.29091(9)	1.0	.
C22	C	0.63878(16)	0.20978(11)	0.21901(10)	1.0	.
C23	C	0.45135(18)	0.08106(11)	0.08190(10)	1.0	.
H23	H	0.4332	0.0564	0.0244	1.0	.
C24	C	0.3224(2)	0.09978(13)	0.09279(15)	1.0	.
H24A	H	0.3412	0.1385	0.1441	1.0	.
H24B	H	0.2793	0.1248	0.0489	1.0	.
C25	C	0.2338(2)	0.01350(14)	0.09154(17)	1.0	.
H25A	H	0.1639	0.0191	0.1177	1.0	.
H25B	H	0.1896	-0.0182	0.0362	1.0	.
C26	C	0.3306(2)	-0.02987(13)	0.13765(13)	1.0	.
H26A	H	0.3032	-0.0908	0.1149	1.0	.
H26B	H	0.3326	-0.0220	0.1943	1.0	.
C27	C	0.46929(19)	0.01137(11)	0.12986(11)	1.0	.
H27A	H	0.5027	-0.0306	0.1018	1.0	.
H27B	H	0.5346	0.0356	0.1832	1.0	.
C28	C	0.75870(18)	0.15017(12)	0.09778(10)	1.0	.
H28	H	0.7455	0.1342	0.0394	1.0	.
C29	C	0.8015(2)	0.07936(15)	0.13725(12)	1.0	.
H29A	H	0.7805	0.0792	0.1884	1.0	.
H29B	H	0.7563	0.0238	0.1018	1.0	.
C30	C	0.9528(2)	0.10105(18)	0.15039(13)	1.0	.
H30A	H	0.9969	0.0726	0.1910	1.0	.
H30B	H	0.9738	0.0851	0.1003	1.0	.
C31	C	0.9961(2)	0.1946(2)	0.17884(14)	1.0	.
H31A	H	1.0814	0.2192	0.1680	1.0	.
H31B	H	1.0095	0.2091	0.2368	1.0	.
C32	C	0.8821(2)	0.22810(15)	0.13227(12)	1.0	.
H32A	H	0.9072	0.2533	0.0889	1.0	.
H32B	H	0.8624	0.2710	0.1681	1.0	.
C33	C	0.57074(18)	0.25977(11)	0.05479(10)	1.0	.
H33	H	0.6589	0.3025	0.0668	1.0	.
C34	C	0.5184(2)	0.22826(13)	-0.03642(11)	1.0	.
H34A	H	0.5923	0.2197	-0.0578	1.0	.
H34B	H	0.4474	0.1746	-0.0505	1.0	.
C35	C	0.4624(2)	0.29674(13)	-0.06928(11)	1.0	.
H35A	H	0.3794	0.2718	-0.1142	1.0	.
H35B	H	0.5287	0.3333	-0.0886	1.0	.
C36	C	0.4322(2)	0.34726(14)	-0.00169(12)	1.0	.
H36A	H	0.3359	0.3458	-0.0163	1.0	.
H36B	H	0.4860	0.4064	0.0101	1.0	.
C37	C	0.46912(19)	0.30686(11)	0.07083(10)	1.0	.
H37A	H	0.3887	0.2676	0.0759	1.0	.
H37B	H	0.5099	0.3502	0.1203	1.0	.
C38	C	0.81200(16)	0.29396(10)	0.62927(9)	1.0	.
C39	C	0.84453(17)	0.31466(10)	0.70082(10)	1.0	.
C40	C	0.91756(18)	0.25564(11)	0.85622(10)	1.0	.
H40	H	0.8249	0.2225	0.8520	1.0	.
C41	C	0.9850(2)	0.19522(13)	0.81986(12)	1.0	.
H41A	H	0.9167	0.1497	0.7784	1.0	.
H41B	H	1.0493	0.2255	0.7951	1.0	.
C42	C	1.0575(2)	0.15921(16)	0.88649(14)	1.0	.
H42A	H	1.1548	0.1733	0.8921	1.0	.
H42B	H	1.0224	0.0974	0.8752	1.0	.
C43	C	1.0335(2)	0.19727(13)	0.96202(12)	1.0	.
H43A	H	1.1151	0.2093	1.0080	1.0	.
H43B	H	0.9586	0.1589	0.9734	1.0	.
C44	C	0.9984(2)	0.27801(14)	0.94534(11)	1.0	.
H44A	H	1.0806	0.3243	0.9556	1.0	.
H44B	H	0.9437	0.2947	0.9787	1.0	.
C45	C	0.76808(18)	0.39128(11)	0.83972(9)	1.0	.
C46	C	0.8087(2)	0.43531(13)	0.92831(11)	1.0	.
C47'	C	0.7268(2)	0.49998(13)	0.93011(12)	1.0	2
H47C	H	0.6355	0.4735	0.9320	1.0	2
H47D	H	0.7717	0.5465	0.9768	1.0	2
C48'	C	0.7216(8)	0.5307(4)	0.8543(3)	1.0	2
H48C	H	0.8029	0.5764	0.8610	1.0	2
H48D	H	0.6416	0.5519	0.8372	1.0	2
C49'	C	0.7141(2)	0.45512(13)	0.79368(12)	1.0	2
H49C	H	0.7689	0.4725	0.7584	1.0	2
H49D	H	0.6200	0.4294	0.7604	1.0	2
C50	C	1.06580(18)	0.43042(11)	0.83667(10)	1.0	.
H50	H	1.0978	0.4477	0.8960	1.0	.
C51	C	1.1772(2)	0.40142(13)	0.81078(13)	1.0	.
H51A	H	1.2175	0.3676	0.8472	1.0	.
H51B	H	1.1425	0.3678	0.7559	1.0	.
C52	C	1.2792(2)	0.48358(16)	0.81544(15)	1.0	.
H52A	H	1.3326	0.5094	0.8713	1.0	.
H52B	H	1.3409	0.4745	0.7841	1.0	.
C53	C	1.1930(3)	0.53748(15)	0.78032(14)	1.0	.
H53A	H	1.1743	0.5278	0.7218	1.0	.
H53B	H	1.2384	0.5976	0.8027	1.0	.
C54	C	1.0623(2)	0.51128(13)	0.80269(14)	1.0	.
H54A	H	0.9834	0.5002	0.7552	1.0	.
H54B	H	1.0570	0.5562	0.8431	1.0	.
C55	C	1.38178(16)	0.56653(11)	0.49325(10)	1.0	.
C56	C	1.47090(17)	0.59439(11)	0.64440(10)	1.0	.
H56A	H	1.4503	0.5337	0.6454	1.0	.
H56B	H	1.4051	0.6184	0.6632	1.0	.
C57	C	1.61420(17)	0.63975(12)	0.69526(11)	1.0	.
H57A	H	1.6165	0.6628	0.7501	1.0	.
H57B	H	1.6730	0.6014	0.6977	1.0	.
C58	C	1.65764(18)	0.70976(12)	0.65285(12)	1.0	.
H58A	H	1.7566	0.7277	0.6655	1.0	.
H58B	H	1.6254	0.7589	0.6681	1.0	.
C59	C	1.59219(17)	0.67047(11)	0.56470(11)	1.0	.
H59A	H	1.5702	0.7132	0.5335	1.0	.
H59B	H	1.6517	0.6428	0.5428	1.0	.
C60	C	0.14120(16)	-0.07331(10)	0.45442(10)	1.0	.
C61	C	0.15861(18)	-0.03641(12)	0.60068(10)	1.0	.
H61A	H	0.1831	0.0247	0.6020	1.0	.
H61B	H	0.2398	-0.0525	0.6276	1.0	.
C62	C	0.0482(2)	-0.06039(13)	0.64009(12)	1.0	.
H62A	H	0.0868	-0.0609	0.6970	1.0	.
H62B	H	-0.0087	-0.0209	0.6356	1.0	.
C63	C	-0.0321(2)	-0.14806(13)	0.59358(13)	1.0	.
H63A	H	-0.1258	-0.1600	0.5957	1.0	.
H63B	H	0.0090	-0.1910	0.6152	1.0	.
C64	C	-0.02720(18)	-0.14708(11)	0.50842(12)	1.0	.
H64A	H	-0.0263	-0.2027	0.4816	1.0	.
H64B	H	-0.1050	-0.1308	0.4769	1.0	.
C1T	C	0.34692(18)	0.26121(12)	0.67742(10)	1.0	.
C2T	C	0.47008(19)	0.24316(14)	0.69765(12)	1.0	.
H2T	H	0.5435	0.2759	0.6846	1.0	.
C3T	C	0.4874(2)	0.17848(16)	0.73631(13)	1.0	.
H3T	H	0.5725	0.1669	0.7499	1.0	.
C4T	C	0.3816(3)	0.13005(15)	0.75561(12)	1.0	.
H4T	H	0.3938	0.0852	0.7821	1.0	.
C5T	C	0.2575(2)	0.14734(12)	0.73614(11)	1.0	.
H5T	H	0.1847	0.1148	0.7498	1.0	.
C6T	C	0.24047(18)	0.21210(11)	0.69687(10)	1.0	.
H6T	H	0.1552	0.2234	0.6829	1.0	.
C7T	C	0.3275(2)	0.33147(14)	0.63501(13)	1.0	.
H7T1	H	0.4101	0.3563	0.6226	1.0	.
H7T2	H	0.3064	0.3744	0.6691	1.0	.
H7T3	H	0.2535	0.3098	0.5855	1.0	.
