data_x10159_config-2
loop_
 _symmetry_equiv_pos_as_xyz
'x, y, z'
'-x, -y, -z'

_cell_length_a	14.7793(7)
_cell_length_b	17.6332(8)
_cell_length_c	20.4037(9)
_cell_angle_alpha	104.426(3)
_cell_angle_beta	105.135(3)
_cell_angle_gamma	105.495(3)
loop_
 _atom_site_label
 _atom_site_type_symbol
 _atom_site_fract_x
 _atom_site_fract_y
 _atom_site_fract_z
 _atom_site_occupancy
 _atom_site_disorder_group
Si1A	Si	0.22080(11)	1.00814(8)	0.56928(8)	1.0	.
Si2A	Si	0.13099(12)	0.43778(9)	0.77538(8)	1.0	.
N1A	N	0.1111(3)	0.8759(3)	1.0469(2)	1.0	.
H1A	H	0.1168	0.8269	1.0308	1.0	.
N2A	N	0.1258(3)	0.3715(2)	0.2866(2)	1.0	.
H2A	H	0.1134	0.3510	0.3198	1.0	.
O1A	O	0.1086(3)	0.9922(2)	1.01689(19)	1.0	.
O2A	O	0.1531(3)	0.4906(2)	0.2581(2)	1.0	.
C1A	C	0.1590(4)	0.7782(3)	0.6324(3)	1.0	.
C2A	C	0.1486(3)	0.7822(3)	0.6999(3)	1.0	.
C3A	C	0.1512(4)	0.8574(3)	0.7485(3)	1.0	.
H3A	H	0.1609	0.9066	0.7361	1.0	.
C4A	C	0.1397(4)	0.8581(3)	0.8126(3)	1.0	.
S5A	S	0.13844(10)	0.94219(7)	0.87844(7)	1.0	.
C6A	C	0.1232(4)	0.8810(3)	0.9336(3)	1.0	.
C7A	C	0.1196(4)	0.8024(3)	0.9041(3)	1.0	.
H7A	H	0.1116	0.7619	0.9274	1.0	.
C8A	C	0.1290(4)	0.7857(3)	0.8344(3)	1.0	.
C9A	C	0.1269(4)	0.7132(3)	0.7886(3)	1.0	.
H9A	H	0.1200	0.6654	0.8030	1.0	.
C10A	C	0.1349(3)	0.7086(3)	0.7204(3)	1.0	.
C11A	C	0.1313(4)	0.6333(3)	0.6717(3)	1.0	.
C12A	C	0.1362(3)	0.6282(3)	0.6030(3)	1.0	.
C13A	C	0.1271(4)	0.5521(3)	0.5525(3)	1.0	.
H13A	H	0.1171	0.5029	0.5652	1.0	.
C14A	C	0.1324(4)	0.5488(3)	0.4858(3)	1.0	.
C15A	C	0.1250(4)	0.4795(3)	0.4271(3)	1.0	.
H15A	H	0.1129	0.4243	0.4285	1.0	.
C16A	C	0.1370(4)	0.5007(3)	0.3698(3)	1.0	.
S17A	S	0.15710(10)	0.60658(7)	0.38252(7)	1.0	.
C18A	C	0.1479(3)	0.6232(3)	0.4678(3)	1.0	.
C19A	C	0.1570(4)	0.6978(3)	0.5141(3)	1.0	.
H19A	H	0.1674	0.7462	0.5004	1.0	.
C20A	C	0.1506(3)	0.7020(3)	0.5830(3)	1.0	.
C21A	C	0.1787(4)	0.8525(3)	0.6134(3)	1.0	.
C22A	C	0.1965(4)	0.9158(3)	0.5986(3)	1.0	.
C23A	C	0.1816(4)	0.9666(3)	0.4687(3)	1.0	.
H23A	H	0.1074	0.9433	0.4483	1.0	.
H23B	H	0.2039	1.0142	0.4521	1.0	.
C24A	C	0.2203(5)	0.8999(3)	0.4375(3)	1.0	.
H24A	H	0.2936	0.9233	0.4539	1.0	.
H24B	H	0.1926	0.8810	0.3846	1.0	.
H24C	H	0.1996	0.8524	0.4537	1.0	.
C25A	C	0.3557(4)	1.0764(3)	0.6170(3)	1.0	.
H25A	H	0.3626	1.1330	0.6147	1.0	.
H25B	H	0.3731	1.0815	0.6686	1.0	.
C26A	C	0.4334(5)	1.0496(4)	0.5903(4)	1.0	.
H26A	H	0.4269	0.9930	0.5907	1.0	.
H26B	H	0.5008	1.0886	0.6220	1.0	.
H26C	H	0.4224	1.0501	0.5409	1.0	.
C27A	C	0.1408(5)	1.0671(4)	0.5969(3)	1.0	.
H27A	H	0.1531	1.1167	0.5814	1.0	.
H27B	H	0.0697	1.0309	0.5700	1.0	.
C28A	C	0.1561(5)	1.0966(4)	0.6766(4)	1.0	.
H28A	H	0.1433	1.0482	0.6928	1.0	.
H28B	H	0.1096	1.1254	0.6846	1.0	.
H28C	H	0.2252	1.1352	0.7040	1.0	.
C29A	C	0.1255(4)	0.5632(3)	0.6968(3)	1.0	.
C30A	C	0.1235(4)	0.5083(3)	0.7221(3)	1.0	.
C31'	C	0.034(3)	0.350(2)	0.7481(17)	1.0	2
H31U	H	0.0392	0.3232	0.7856	1.0	2
H31V	H	-0.0293	0.3605	0.7372	1.0	2
C32'	C	0.041(5)	0.293(4)	0.679(3)	1.0	2
H32U	H	-0.0149	0.2394	0.6596	1.0	2
H32V	H	0.1045	0.2840	0.6907	1.0	2
H32W	H	0.0362	0.3209	0.6425	1.0	2
C33'	C	0.153(2)	0.516(2)	0.8777(18)	1.0	2
H33O	H	0.1751	0.4901	0.9140	1.0	2
H33P	H	0.2061	0.5703	0.8899	1.0	2
C34'	C	0.058(3)	0.529(3)	0.880(3)	1.0	2
H34O	H	0.0698	0.5661	0.9285	1.0	2
H34P	H	0.0058	0.4754	0.8686	1.0	2
H34Q	H	0.0369	0.5555	0.8446	1.0	2
C35'	C	0.256(2)	0.423(2)	0.7912(18)	1.0	2
H35G	H	0.2528	0.3793	0.8136	1.0	2
H35H	H	0.2581	0.3985	0.7427	1.0	2
C36'	C	0.358(4)	0.491(6)	0.834(7)	1.0	2
H36G	H	0.4103	0.4665	0.8367	1.0	2
H36H	H	0.3606	0.5180	0.8834	1.0	2
H36I	H	0.3692	0.5333	0.8108	1.0	2
C37A	C	0.1141(4)	0.9228(3)	1.0031(3)	1.0	.
C38A	C	0.0999(4)	0.8964(3)	1.1150(3)	1.0	.
C39A	C	0.0598(4)	0.9565(3)	1.1383(3)	1.0	.
H39A	H	0.0377	0.9858	1.1079	1.0	.
C40A	C	0.0524(4)	0.9733(4)	1.2065(3)	1.0	.
H40A	H	0.0271	1.0156	1.2232	1.0	.
C41A	C	0.0813(4)	0.9295(4)	1.2504(3)	1.0	.
H41A	H	0.0764	0.9421	1.2972	1.0	.
C42A	C	0.1172(4)	0.8674(4)	1.2263(3)	1.0	.
H42A	H	0.1351	0.8359	1.2557	1.0	.
C43A	C	0.1270(4)	0.8511(3)	1.1589(3)	1.0	.
H43A	H	0.1524	0.8087	1.1425	1.0	.
C44A	C	0.1387(4)	0.4536(3)	0.2996(3)	1.0	.
C45A	C	0.1299(4)	0.3152(3)	0.2256(3)	1.0	.
C46A	C	0.1375(4)	0.2398(3)	0.2312(3)	1.0	.
H46A	H	0.1389	0.2281	0.2743	1.0	.
C47A	C	0.1430(4)	0.1821(3)	0.1738(3)	1.0	.
H47A	H	0.1481	0.1308	0.1780	1.0	.
C48A	C	0.1412(4)	0.1977(3)	0.1107(3)	1.0	.
H48A	H	0.1451	0.1577	0.0715	1.0	.
C49A	C	0.1338(4)	0.2725(3)	0.1054(3)	1.0	.
H49A	H	0.1329	0.2837	0.0620	1.0	.
C50A	C	0.1276(4)	0.3318(3)	0.1616(3)	1.0	.
H50A	H	0.1220	0.3827	0.1569	1.0	.
Si1B	Si	0.35998(13)	-0.33092(9)	0.20163(8)	1.0	.
Si2B	Si	0.33277(11)	0.22269(8)	-0.01755(8)	1.0	.
N1B	N	0.3400(3)	0.2767(2)	0.4539(2)	1.0	.
H1B	H	0.3438	0.2940	0.4174	1.0	.
N2B	N	0.3948(3)	-0.2175(2)	-0.2948(2)	1.0	.
H2B	H	0.3918	-0.1673	-0.2791	1.0	.
O1B	O	0.3294(3)	0.1640(2)	0.49092(19)	1.0	.
O2B	O	0.3934(3)	-0.3328(2)	-0.2618(2)	1.0	.
C1B	C	0.3656(4)	-0.1127(3)	0.1257(3)	1.0	.
C2B	C	0.3652(4)	-0.0388(3)	0.1734(3)	1.0	.
C3B	C	0.3638(4)	-0.0337(3)	0.2431(3)	1.0	.
H3B	H	0.3680	-0.0786	0.2601	1.0	.
C4B	C	0.3563(3)	0.0358(3)	0.2865(3)	1.0	.
S5B	S	0.34872(10)	0.05120(7)	0.37162(6)	1.0	.
C6B	C	0.3421(4)	0.1503(3)	0.3770(3)	1.0	.
C7B	C	0.3440(4)	0.1695(3)	0.3169(3)	1.0	.
H7B	H	0.3410	0.2209	0.3116	1.0	.
C8B	C	0.3511(4)	0.1043(3)	0.2621(3)	1.0	.
C9B	C	0.3546(4)	0.1020(3)	0.1954(3)	1.0	.
H9B	H	0.3525	0.1483	0.1800	1.0	.
C10B	C	0.3612(4)	0.0306(3)	0.1490(3)	1.0	.
C11B	C	0.3648(3)	0.0259(3)	0.0794(3)	1.0	.
C12B	C	0.3704(3)	-0.0467(3)	0.0332(3)	1.0	.
C13B	C	0.3769(4)	-0.0509(3)	-0.0353(3)	1.0	.
H13B	H	0.3801	-0.0038	-0.0505	1.0	.
C14B	C	0.3787(4)	-0.1226(3)	-0.0800(3)	1.0	.
C15B	C	0.3865(4)	-0.1398(3)	-0.1506(3)	1.0	.
H15B	H	0.3924	-0.0999	-0.1746	1.0	.
C16B	C	0.3847(4)	-0.2182(3)	-0.1795(3)	1.0	.
S17B	S	0.37285(10)	-0.27821(7)	-0.12316(7)	1.0	.
C18B	C	0.3712(4)	-0.1940(3)	-0.0576(3)	1.0	.
C19B	C	0.3653(4)	-0.1922(3)	0.0081(3)	1.0	.
H19B	H	0.3603	-0.2405	0.0216	1.0	.
C20B	C	0.3666(4)	-0.1183(3)	0.0564(3)	1.0	.
C21B	C	0.3648(4)	-0.1826(3)	0.1501(3)	1.0	.
C22B	C	0.3632(4)	-0.2415(3)	0.1693(3)	1.0	.
C23B	C	0.4728(5)	-0.3592(4)	0.1950(4)	1.0	.
H23D	H	0.4737	-0.4058	0.2136	1.0	.
H23E	H	0.4657	-0.3795	0.1434	1.0	.
C24B	C	0.5718(5)	-0.2875(4)	0.2360(3)	1.0	.
H24D	H	0.5709	-0.2403	0.2191	1.0	.
H24E	H	0.6263	-0.3057	0.2278	1.0	.
H24F	H	0.5823	-0.2701	0.2878	1.0	.
C25B	C	0.2415(6)	-0.4207(4)	0.1434(4)	1.0	.
H25D	H	0.2407	-0.4690	0.1599	1.0	.
H25E	H	0.1840	-0.4050	0.1495	1.0	.
C26B	C	0.2280(9)	-0.4473(8)	0.0642(5)	1.0	.
H26D	H	0.2837	-0.4645	0.0573	1.0	.
H26E	H	0.2270	-0.4004	0.0469	1.0	.
H26F	H	0.1646	-0.4945	0.0368	1.0	.
C27B	C	0.3652(6)	-0.2956(4)	0.2975(4)	1.0	.
H27D	H	0.3516	-0.3448	0.3133	1.0	.
H27E	H	0.4339	-0.2565	0.3285	1.0	.
C28B	C	0.2911(5)	-0.2524(4)	0.3088(3)	1.0	.
H28D	H	0.3075	-0.2009	0.2971	1.0	.
H28E	H	0.2953	-0.2386	0.3594	1.0	.
H28F	H	0.2230	-0.2900	0.2772	1.0	.
C29B	C	0.3601(4)	0.0929(3)	0.0529(3)	1.0	.
C30B	C	0.3527(4)	0.1477(3)	0.0287(3)	1.0	.
C31B	C	0.1956(4)	0.1858(3)	-0.0703(3)	1.0	.
H31A	H	0.1737	0.1269	-0.1022	1.0	.
H31B	H	0.1587	0.1869	-0.0362	1.0	.
C32B	C	0.1669(6)	0.2372(5)	-0.1164(5)	1.0	.
H32A	H	0.1789	0.2936	-0.0850	1.0	.
H32B	H	0.0957	0.2102	-0.1466	1.0	.
H32C	H	0.2075	0.2409	-0.1473	1.0	.
C33B	C	0.4032(5)	0.2191(4)	-0.0813(3)	1.0	.
H33A	H	0.3889	0.2553	-0.1096	1.0	.
H33B	H	0.4760	0.2425	-0.0529	1.0	.
C34B	C	0.3778(5)	0.1320(4)	-0.1329(4)	1.0	.
H34A	H	0.3947	0.0963	-0.1054	1.0	.
H34B	H	0.4164	0.1350	-0.1653	1.0	.
H34C	H	0.3060	0.1084	-0.1615	1.0	.
C35B	C	0.3794(5)	0.3306(3)	0.0519(3)	1.0	.
H35A	H	0.3311	0.3333	0.0773	1.0	.
H35B	H	0.4441	0.3393	0.0881	1.0	.
C36B	C	0.3941(8)	0.4015(4)	0.0214(5)	1.0	.
H36A	H	0.4350	0.3954	-0.0090	1.0	.
H36B	H	0.4281	0.4553	0.0613	1.0	.
H36C	H	0.3287	0.3996	-0.0076	1.0	.
C37B	C	0.3370(4)	0.1969(3)	0.4453(3)	1.0	.
C38B	C	0.3377(4)	0.3350(3)	0.5143(3)	1.0	.
C39B	C	0.3500(4)	0.3250(3)	0.5809(3)	1.0	.
H39B	H	0.3624	0.2771	0.5884	1.0	.
C40B	C	0.3440(4)	0.3854(3)	0.6368(3)	1.0	.
H40B	H	0.3514	0.3778	0.6821	1.0	.
C41B	C	0.3274(4)	0.4562(3)	0.6274(3)	1.0	.
H41B	H	0.3234	0.4971	0.6658	1.0	.
C42B	C	0.3168(4)	0.4663(3)	0.5608(3)	1.0	.
H42B	H	0.3063	0.5150	0.5538	1.0	.
C43B	C	0.3214(4)	0.4068(3)	0.5050(3)	1.0	.
H43B	H	0.3134	0.4145	0.4597	1.0	.
C44B	C	0.3910(4)	-0.2628(3)	-0.2488(3)	1.0	.
C45B	C	0.4029(4)	-0.2409(3)	-0.3635(3)	1.0	.
C46B	C	0.3994(4)	-0.1854(3)	-0.4010(3)	1.0	.
H46B	H	0.3907	-0.1345	-0.3802	1.0	.
C47B	C	0.4084(4)	-0.2039(3)	-0.4685(3)	1.0	.
H47B	H	0.4075	-0.1650	-0.4934	1.0	.
C48B	C	0.4186(4)	-0.2781(3)	-0.4996(3)	1.0	.
H48B	H	0.4232	-0.2911	-0.5464	1.0	.
C49B	C	0.4222(4)	-0.3346(3)	-0.4625(3)	1.0	.
H49B	H	0.4297	-0.3858	-0.4840	1.0	.
C50B	C	0.4149(4)	-0.3162(3)	-0.3945(3)	1.0	.
H50B	H	0.4180	-0.3544	-0.3691	1.0	.
O1C	O	0.3708(3)	0.3684(2)	0.3525(2)	1.0	.
C1C	C	0.3942(5)	0.5036(3)	0.3474(4)	1.0	.
H1C1	H	0.3818	0.5139	0.3931	1.0	.
H1C2	H	0.3442	0.5142	0.3122	1.0	.
H1C3	H	0.4615	0.5410	0.3554	1.0	.
C2C	C	0.3869(4)	0.4147(3)	0.3191(3)	1.0	.
C3C	C	0.4010(5)	0.3862(4)	0.2486(3)	1.0	.
H3C1	H	0.4723	0.3969	0.2569	1.0	.
H3C2	H	0.3769	0.4168	0.2181	1.0	.
H3C3	H	0.3629	0.3260	0.2243	1.0	.
O1D	O	0.0958(3)	0.2772(2)	0.3888(2)	1.0	.
C1D	C	0.0805(5)	0.2627(4)	0.4980(3)	1.0	.
H1D1	H	0.1413	0.2657	0.5341	1.0	.
H1D2	H	0.0216	0.2240	0.5010	1.0	.
H1D3	H	0.0758	0.3186	0.5075	1.0	.
C2D	C	0.0851(4)	0.2324(3)	0.4247(3)	1.0	.
C3D	C	0.0781(5)	0.1426(3)	0.3974(4)	1.0	.
H3D1	H	0.0117	0.1053	0.3912	1.0	.
H3D2	H	0.1297	0.1332	0.4325	1.0	.
H3D3	H	0.0884	0.1308	0.3509	1.0	.
