data_x10196_config-1
loop_
 _symmetry_equiv_pos_as_xyz
'x, y, z'
'-x, -y, -z'

_cell_length_a	8.7194(2)
_cell_length_b	9.5036(2)
_cell_length_c	16.9072(3)
_cell_angle_alpha	92.701(1)
_cell_angle_beta	101.738(1)
_cell_angle_gamma	107.103(1)
loop_
 _atom_site_label
 _atom_site_type_symbol
 _atom_site_fract_x
 _atom_site_fract_y
 _atom_site_fract_z
 _atom_site_occupancy
 _atom_site_disorder_group
Si1	Si	0.15407(11)	0.25852(10)	0.16358(5)	1.0	.
C1	C	0.4277(3)	0.4475(3)	0.41737(17)	1.0	.
C2	C	0.5745(3)	0.4186(3)	0.45430(17)	1.0	.
C3	C	0.6492(3)	0.3380(3)	0.41085(18)	1.0	.
H3	H	0.6015	0.3025	0.3551	1.0	1
C4	C	0.7913(3)	0.3105(3)	0.44900(18)	1.0	1
S5	S	0.90412(11)	0.21415(10)	0.40476(6)	1.0	1
C6	C	1.0416(8)	0.2366(10)	0.5003(5)	1.0	1
C7	C	1.0042(8)	0.3151(8)	0.5576(3)	1.0	1
H7	H	1.0694	0.3386	0.6117	1.0	1
C8	C	0.8625(3)	0.3614(3)	0.53341(18)	1.0	1
C9	C	0.7926(3)	0.4410(3)	0.57655(17)	1.0	.
H9	H	0.8418	0.4753	0.6323	1.0	1
C10	C	0.6477(3)	0.4726(3)	0.53884(17)	1.0	.
C11	C	0.3508(3)	0.3924(3)	0.33393(18)	1.0	.
C12	C	0.2799(4)	0.3458(3)	0.26486(18)	1.0	.
C13	C	-0.0617(5)	0.2599(5)	0.1638(3)	1.0	.
H13	H	-0.0861	0.2134	0.2135	1.0	.
C14	C	-0.1923(6)	0.1584(6)	0.0933(4)	1.0	.
H14A	H	-0.3020	0.1583	0.0989	1.0	.
H14B	H	-0.1853	0.0574	0.0942	1.0	.
H14C	H	-0.1733	0.1944	0.0417	1.0	.
C15	C	-0.0778(5)	0.4120(5)	0.1764(3)	1.0	.
H15A	H	-0.0765	0.4563	0.1246	1.0	.
H15B	H	0.0210	0.4737	0.2170	1.0	.
C16	C	-0.2283(6)	0.4226(7)	0.2043(3)	1.0	.
H16A	H	-0.3278	0.3595	0.1660	1.0	.
H16B	H	-0.2292	0.5256	0.2066	1.0	.
H16C	H	-0.2257	0.3896	0.2585	1.0	.
C17	C	0.2523(17)	0.3713(8)	0.0869(4)	1.0	1
H17	H	0.3643	0.3591	0.0947	1.0	1
C18	C	0.1660(8)	0.3050(7)	-0.0004(3)	1.0	1
H18A	H	0.0554	0.3156	-0.0129	1.0	1
H18B	H	0.1572	0.1997	-0.0067	1.0	1
H18C	H	0.2297	0.3570	-0.0376	1.0	1
C19	C	0.2838(11)	0.5364(8)	0.1024(4)	1.0	1
H19A	H	0.3167	0.5654	0.1619	1.0	1
H19B	H	0.1790	0.5574	0.0820	1.0	1
C20	C	0.4146(8)	0.6339(7)	0.0640(4)	1.0	1
H20A	H	0.5236	0.6307	0.0917	1.0	1
H20B	H	0.4118	0.7362	0.0693	1.0	1
H20C	H	0.3928	0.5977	0.0063	1.0	1
C21	C	0.1630(5)	0.0626(4)	0.1545(2)	1.0	.
H21	H	0.0868	0.0104	0.1020	1.0	.
C22	C	0.3356(6)	0.0571(5)	0.1515(3)	1.0	.
H22A	H	0.4121	0.1012	0.2037	1.0	.
H22B	H	0.3731	0.1128	0.1080	1.0	.
H22C	H	0.3322	-0.0462	0.1409	1.0	.
C23	C	0.1008(6)	-0.0198(5)	0.2230(3)	1.0	.
H23A	H	0.1766	0.0299	0.2753	1.0	.
H23B	H	-0.0085	-0.0092	0.2238	1.0	.
C24	C	0.0850(8)	-0.1821(6)	0.2187(3)	1.0	.
H24A	H	-0.0063	-0.2366	0.1734	1.0	.
H24B	H	0.0633	-0.2193	0.2697	1.0	.
H24C	H	0.1876	-0.1961	0.2102	1.0	.
C25	C	1.1564(15)	0.1591(17)	0.4880(5)	1.0	1
O1	O	1.1477(12)	0.0960(14)	0.4220(5)	1.0	1
N1	N	1.2787(13)	0.1610(15)	0.5527(4)	1.0	1
C26	C	1.3064(13)	0.2198(15)	0.6375(5)	1.0	1
H26A	H	1.2175	0.1617	0.6621	1.0	1
H26B	H	1.3076	0.3244	0.6411	1.0	1
C27	C	1.4753(8)	0.2084(8)	0.6828(4)	1.0	1
H27A	H	1.5664	0.2998	0.6829	1.0	1
H27B	H	1.4750	0.1864	0.7394	1.0	1
C28	C	1.4852(11)	0.0797(10)	0.6308(5)	1.0	1
H28A	H	1.4297	-0.0150	0.6497	1.0	1
H28B	H	1.6019	0.0861	0.6342	1.0	1
C29	C	1.3996(12)	0.0865(11)	0.5425(5)	1.0	1
H29A	H	1.4792	0.1442	0.5127	1.0	1
H29B	H	1.3450	-0.0141	0.5130	1.0	1
