data_x12198_config-1
loop_
 _symmetry_equiv_pos_as_xyz
'x, y, z'
'-x, y+1/2, -z+1/2'
'-x, -y, -z'
'x, -y-1/2, z-1/2'

_cell_length_a	17.0799(7)
_cell_length_b	19.0092(5)
_cell_length_c	15.3411(4)
_cell_angle_alpha	90
_cell_angle_beta	109.984(2)
_cell_angle_gamma	90
loop_
 _atom_site_label
 _atom_site_type_symbol
 _atom_site_fract_x
 _atom_site_fract_y
 _atom_site_fract_z
 _atom_site_occupancy
 _atom_site_disorder_group
Si1	Si	-0.3383(2)	0.1880(3)	0.1214(3)	1.0	.
Si2	Si	0.33167(19)	0.2355(2)	0.0747(2)	1.0	.
C1	C	-0.0786(5)	0.2070(5)	0.1144(6)	1.0	.
C2	C	-0.0326(5)	0.1471(5)	0.1171(6)	1.0	.
C3	C	-0.0607(6)	0.0786(6)	0.1215(6)	1.0	.
H3	H	-0.1157	0.0712	0.1215	1.0	1
C4	C	-0.0097(6)	0.0221(5)	0.1258(6)	1.0	1
S5	S	-0.0435(3)	-0.0649(2)	0.1352(4)	1.0	1
C6	C	0.0575(14)	-0.0922(6)	0.131(3)	1.0	1
I1	I	0.0772(4)	-0.2004(3)	0.1364(4)	1.0	1
C7	C	0.1049(10)	-0.0370(7)	0.1235(13)	1.0	1
H7	H	0.1585	-0.0438	0.1191	1.0	1
C8	C	0.0718(6)	0.0301(4)	0.1223(6)	1.0	1
C9	C	0.0996(6)	0.0958(5)	0.1143(6)	1.0	.
H9	H	0.1536	0.1014	0.1106	1.0	1
C10	C	0.0503(6)	0.1560(5)	0.1113(6)	1.0	.
C11	C	0.0824(6)	0.2252(5)	0.1104(6)	1.0	.
C12	C	0.0357(6)	0.2846(5)	0.1124(6)	1.0	.
C13	C	0.0660(6)	0.3542(6)	0.1162(6)	1.0	.
H13	H	0.1211	0.3614	0.1164	1.0	1
C14	C	0.0191(6)	0.4108(5)	0.1194(7)	1.0	1
S15	S	0.0522(4)	0.4991(3)	0.1266(6)	1.0	1
C16	C	-0.0494(13)	0.5222(7)	0.1248(19)	1.0	1
I2	I	-0.07041(17)	0.63125(7)	0.12922(9)	1.0	1
C17	C	-0.1027(13)	0.4692(10)	0.122(2)	1.0	1
H17	H	-0.1577	0.4750	0.1232	1.0	1
C18	C	-0.0635(6)	0.4021(5)	0.1186(7)	1.0	1
C19	C	-0.0943(6)	0.3356(5)	0.1160(6)	1.0	.
H19	H	-0.1494	0.3298	0.1164	1.0	1
C20	C	-0.0472(6)	0.2750(6)	0.1126(6)	1.0	.
C21	C	-0.1627(7)	0.2002(6)	0.1160(7)	1.0	.
C22	C	-0.2320(7)	0.1939(8)	0.1163(8)	1.0	.
C23	C	-0.3689(16)	0.2786(9)	0.151(2)	1.0	1
H23A	H	-0.4258	0.2882	0.1074	1.0	1
H23B	H	-0.3733	0.2752	0.2137	1.0	1
C24	C	-0.3179(15)	0.3420(12)	0.1511(17)	1.0	1
H24	H	-0.2579	0.3288	0.1810	1.0	1
C25	C	-0.333(2)	0.4058(14)	0.196(2)	1.0	1
H25A	H	-0.2886	0.4401	0.1995	1.0	1
H25B	H	-0.3321	0.3947	0.2580	1.0	1
H25C	H	-0.3868	0.4257	0.1589	1.0	1
C26	C	-0.3315(19)	0.3630(16)	0.0505(17)	1.0	1
H26A	H	-0.3184	0.3229	0.0176	1.0	1
H26B	H	-0.2951	0.4026	0.0497	1.0	1
H26C	H	-0.3898	0.3767	0.0198	1.0	1
C27	C	-0.4139(13)	0.1579(15)	0.0053(15)	1.0	1
H27A	H	-0.4706	0.1651	0.0074	1.0	1
H27B	H	-0.4078	0.1909	-0.0419	1.0	1
C28	C	-0.4123(14)	0.0868(14)	-0.0309(19)	1.0	1
H28	H	-0.4174	0.0576	0.0211	1.0	1
C29	C	-0.4809(19)	0.0595(19)	-0.109(2)	1.0	1
H29A	H	-0.4661	0.0131	-0.1262	1.0	1
H29B	H	-0.4922	0.0916	-0.1617	1.0	1
H29C	H	-0.5308	0.0555	-0.0912	1.0	1
C30	C	-0.3286(16)	0.0628(18)	-0.033(2)	1.0	1
H30A	H	-0.3351	0.0176	-0.0658	1.0	1
H30B	H	-0.2897	0.0574	0.0302	1.0	1
H30C	H	-0.3069	0.0979	-0.0659	1.0	1
C31	C	-0.3399(17)	0.1167(17)	0.2059(16)	1.0	1
H31A	H	-0.3871	0.1255	0.2279	1.0	1
H31B	H	-0.3501	0.0711	0.1727	1.0	1
C32	C	-0.2632(15)	0.1110(15)	0.2868(15)	1.0	1
H32	H	-0.2166	0.1009	0.2630	1.0	1
C33	C	-0.240(2)	0.1732(17)	0.345(2)	1.0	1
H33A	H	-0.1902	0.1629	0.3991	1.0	1
H33B	H	-0.2858	0.1867	0.3663	1.0	1
H33C	H	-0.2276	0.2119	0.3096	1.0	1
C34	C	-0.2680(16)	0.0492(16)	0.3480(16)	1.0	1
H34A	H	-0.2920	0.0084	0.3089	1.0	1
H34B	H	-0.3032	0.0620	0.3844	1.0	1
H34C	H	-0.2119	0.0375	0.3899	1.0	1
C35	C	0.1640(6)	0.2332(6)	0.1001(7)	1.0	.
C36	C	0.2301(6)	0.2352(7)	0.0939(7)	1.0	.
C37	C	0.352(4)	0.3248(17)	0.030(3)	1.0	1
H37A	H	0.3990	0.3187	0.0062	1.0	1
H37B	H	0.3024	0.3367	-0.0245	1.0	1
C38	C	0.3712(19)	0.3861(16)	0.092(2)	1.0	1
H38	H	0.4211	0.3729	0.1460	1.0	1
C39	C	0.305(2)	0.405(2)	0.129(3)	1.0	1
H39A	H	0.2903	0.3629	0.1578	1.0	1
H39B	H	0.2561	0.4216	0.0792	1.0	1
H39C	H	0.3255	0.4415	0.1764	1.0	1
C40	C	0.398(2)	0.4491(17)	0.046(3)	1.0	1
H40A	H	0.4258	0.4838	0.0933	1.0	1
H40B	H	0.3483	0.4705	0.0004	1.0	1
H40C	H	0.4357	0.4332	0.0144	1.0	1
C41	C	0.4121(9)	0.2144(11)	0.1861(11)	1.0	.
H41A	H	0.4625	0.2012	0.1719	1.0	.
H41B	H	0.4254	0.2590	0.2214	1.0	.
C42	C	0.4024(11)	0.1620(9)	0.2493(11)	1.0	.
H42	H	0.3618	0.1863	0.2732	1.0	.
C43	C	0.3610(13)	0.0965(11)	0.2211(15)	1.0	.
H43A	H	0.3146	0.0926	0.2447	1.0	.
H43B	H	0.4004	0.0579	0.2460	1.0	.
H43C	H	0.3396	0.0939	0.1532	1.0	.
C44	C	0.4769(12)	0.1554(16)	0.3385(11)	1.0	.
H44A	H	0.4796	0.1074	0.3625	1.0	.
H44B	H	0.4708	0.1887	0.3845	1.0	.
H44C	H	0.5281	0.1659	0.3257	1.0	.
C45	C	0.3299(7)	0.1684(11)	-0.0160(10)	1.0	.
H45A	H	0.3640	0.1867	-0.0517	1.0	.
H45B	H	0.3578	0.1253	0.0164	1.0	.
C46	C	0.2473(7)	0.1476(7)	-0.0833(8)	1.0	.
H46	H	0.2138	0.1291	-0.0460	1.0	.
C47	C	0.1992(9)	0.2051(7)	-0.1399(9)	1.0	.
H47A	H	0.1910	0.2421	-0.0993	1.0	.
H47B	H	0.1449	0.1874	-0.1798	1.0	.
H47C	H	0.2295	0.2244	-0.1784	1.0	.
C48	C	0.2572(11)	0.0870(11)	-0.1439(12)	1.0	.
H48A	H	0.2023	0.0728	-0.1865	1.0	.
H48B	H	0.2838	0.0471	-0.1046	1.0	.
H48C	H	0.2919	0.1023	-0.1798	1.0	.
